# generated using pymatgen
data_Ni3P4O15
_symmetry_space_group_name_H-M   'P 1'
_cell_length_a   18.21972048
_cell_length_b   10.54164796
_cell_length_c   6.42821215
_cell_angle_alpha   90.00000000
_cell_angle_beta   90.00000000
_cell_angle_gamma   90.00000000
_symmetry_Int_Tables_number   1
_chemical_formula_structural   Ni3P4O15
_chemical_formula_sum   'Ni12 P16 O60'
_cell_volume   1234.64021847
_cell_formula_units_Z   4
loop_
 _symmetry_equiv_pos_site_id
 _symmetry_equiv_pos_as_xyz
  1  'x, y, z'
loop_
 _atom_site_type_symbol
 _atom_site_label
 _atom_site_symmetry_multiplicity
 _atom_site_fract_x
 _atom_site_fract_y
 _atom_site_fract_z
 _atom_site_occupancy
  Ni  Ni0  1  0.830514  0.005272  0.011449  1
  Ni  Ni1  1  0.133154  0.505211  0.493741  1
  Ni  Ni2  1  0.866846  0.494789  0.993741  1
  Ni  Ni3  1  0.758803  0.743656  0.730644  1
  Ni  Ni4  1  0.633154  0.994789  0.493741  1
  Ni  Ni5  1  0.741197  0.243656  0.230644  1
  Ni  Ni6  1  0.241197  0.256344  0.230644  1
  Ni  Ni7  1  0.669486  0.505272  0.511449  1
  Ni  Ni8  1  0.169486  0.994728  0.511449  1
  Ni  Ni9  1  0.258803  0.756344  0.730644  1
  Ni  Ni10  1  0.330514  0.494728  0.011449  1
  Ni  Ni11  1  0.366846  0.005211  0.993741  1
  P  P12  1  0.319025  0.016638  0.493379  1
  P  P13  1  0.050878  0.772966  0.555587  1
  P  P14  1  0.787122  0.003703  0.506119  1
  P  P15  1  0.212878  0.996297  0.006119  1
  P  P16  1  0.550878  0.727034  0.555587  1
  P  P17  1  0.180975  0.516638  0.993379  1
  P  P18  1  0.449122  0.272966  0.055587  1
  P  P19  1  0.949122  0.227034  0.055587  1
  P  P20  1  0.287121  0.496297  0.506119  1
  P  P21  1  0.819025  0.483362  0.493379  1
  P  P22  1  0.680975  0.983362  0.993379  1
  P  P23  1  0.070620  0.229033  0.364010  1
  P  P24  1  0.429380  0.729033  0.864010  1
  P  P25  1  0.570620  0.270967  0.364010  1
  P  P26  1  0.929380  0.770967  0.864010  1
  P  P27  1  0.712878  0.503703  0.006119  1
  O  O28  1  0.586291  0.385279  0.500298  1
  O  O29  1  0.234786  0.400501  0.025654  1
  O  O30  1  0.991595  0.198537  0.269150  1
  O  O31  1  0.370793  0.737375  0.691760  1
  O  O32  1  0.266063  0.112371  0.037957  1
  O  O33  1  0.865432  0.457367  0.685045  1
  O  O34  1  0.265214  0.900501  0.525654  1
  O  O35  1  0.134568  0.542633  0.185045  1
  O  O36  1  0.259918  0.123826  0.456574  1
  O  O37  1  0.413709  0.614721  0.000298  1
  O  O38  1  0.365432  0.042633  0.685045  1
  O  O39  1  0.765214  0.599499  0.525654  1
  O  O40  1  0.508405  0.698537  0.769150  1
  O  O41  1  0.491595  0.301463  0.269150  1
  O  O42  1  0.869779  0.503525  0.308263  1
  O  O43  1  0.048208  0.629326  0.520150  1
  O  O44  1  0.334911  0.467458  0.695246  1
  O  O45  1  0.629207  0.262625  0.191760  1
  O  O46  1  0.734786  0.099499  0.025654  1
  O  O47  1  0.871699  0.177063  0.088046  1
  O  O48  1  0.913709  0.885279  0.000298  1
  O  O49  1  0.730642  0.111511  0.456979  1
  O  O50  1  0.338260  0.522580  0.321439  1
  O  O51  1  0.008405  0.801463  0.769150  1
  O  O52  1  0.230642  0.388489  0.456979  1
  O  O53  1  0.086291  0.114721  0.500298  1
  O  O54  1  0.951792  0.370674  0.020150  1
  O  O55  1  0.634568  0.957367  0.185045  1
  O  O56  1  0.128301  0.822937  0.588046  1
  O  O57  1  0.507724  0.666499  0.376349  1
  O  O58  1  0.733937  0.887629  0.537957  1
  O  O59  1  0.233937  0.612371  0.537957  1
  O  O60  1  0.769358  0.611511  0.956979  1
  O  O61  1  0.451792  0.129326  0.020150  1
  O  O62  1  0.492276  0.333501  0.876349  1
  O  O63  1  0.935977  0.642841  0.970172  1
  O  O64  1  0.838260  0.977420  0.321439  1
  O  O65  1  0.992276  0.166499  0.876349  1
  O  O66  1  0.165089  0.967458  0.195246  1
  O  O67  1  0.630221  0.003525  0.808263  1
  O  O68  1  0.129207  0.237375  0.191760  1
  O  O69  1  0.661740  0.477420  0.821438  1
  O  O70  1  0.834911  0.032542  0.695246  1
  O  O71  1  0.269358  0.888489  0.956979  1
  O  O72  1  0.435977  0.857159  0.970172  1
  O  O73  1  0.130221  0.496475  0.808263  1
  O  O74  1  0.665089  0.532542  0.195246  1
  O  O75  1  0.740082  0.876174  0.956574  1
  O  O76  1  0.369779  0.996475  0.308263  1
  O  O77  1  0.628301  0.677063  0.588046  1
  O  O78  1  0.371699  0.322937  0.088046  1
  O  O79  1  0.548208  0.870674  0.520150  1
  O  O80  1  0.064023  0.357159  0.470172  1
  O  O81  1  0.564023  0.142841  0.470172  1
  O  O82  1  0.766063  0.387629  0.037957  1
  O  O83  1  0.870793  0.762625  0.691760  1
  O  O84  1  0.007724  0.833501  0.376349  1
  O  O85  1  0.240082  0.623826  0.956574  1
  O  O86  1  0.161740  0.022580  0.821438  1
  O  O87  1  0.759918  0.376174  0.456574  1
