# generated using pymatgen
data_NbS2
_symmetry_space_group_name_H-M   'P 1'
_cell_length_a   3.09001210
_cell_length_b   3.09001210
_cell_length_c   10.72192700
_cell_angle_alpha   90.00000000
_cell_angle_beta   90.00000000
_cell_angle_gamma   120.00000204
_symmetry_Int_Tables_number   1
_chemical_formula_structural   NbS2
_chemical_formula_sum   'Nb2 S4'
_cell_volume   88.65920395
_cell_formula_units_Z   2
loop_
 _symmetry_equiv_pos_site_id
 _symmetry_equiv_pos_as_xyz
  1  'x, y, z'
loop_
 _atom_site_type_symbol
 _atom_site_label
 _atom_site_symmetry_multiplicity
 _atom_site_fract_x
 _atom_site_fract_y
 _atom_site_fract_z
 _atom_site_occupancy
  Nb  Nb0  1  0.000000  0.000000  0.750000  1
  Nb  Nb1  1  0.000000  0.000000  0.250000  1
  S  S2  1  0.666670  0.333330  0.607900  1
  S  S3  1  0.333330  0.666670  0.392100  1
  S  S4  1  0.333330  0.666670  0.107900  1
  S  S5  1  0.666670  0.333330  0.892100  1
