# generated using pymatgen
data_CoP2O7
_symmetry_space_group_name_H-M   'P 1'
_cell_length_a   6.42582324
_cell_length_b   10.60735208
_cell_length_c   9.57871863
_cell_angle_alpha   64.02274805
_cell_angle_beta   106.86867431
_cell_angle_gamma   94.55274168
_symmetry_Int_Tables_number   1
_chemical_formula_structural   CoP2O7
_chemical_formula_sum   'Co4 P8 O28'
_cell_volume   560.81224463
_cell_formula_units_Z   4
loop_
 _symmetry_equiv_pos_site_id
 _symmetry_equiv_pos_as_xyz
  1  'x, y, z'
loop_
 _atom_site_type_symbol
 _atom_site_label
 _atom_site_symmetry_multiplicity
 _atom_site_fract_x
 _atom_site_fract_y
 _atom_site_fract_z
 _atom_site_occupancy
  Co  Co0  1  0.720516  0.776101  0.096102  1
  Co  Co1  1  0.620809  0.755323  0.491622  1
  Co  Co2  1  0.279347  0.227053  0.894151  1
  Co  Co3  1  0.374967  0.250744  0.498316  1
  P  P4  1  0.892892  0.301646  0.550115  1
  P  P5  1  0.080296  0.207713  0.183611  1
  P  P6  1  0.103462  0.704031  0.440653  1
  P  P7  1  0.919315  0.796642  0.806103  1
  P  P8  1  0.696516  0.038707  0.186263  1
  P  P9  1  0.583884  0.541002  0.308610  1
  P  P10  1  0.412849  0.464528  0.683050  1
  P  P11  1  0.305081  0.965545  0.803637  1
  O  O12  1  0.360121  0.424210  0.844151  1
  O  O13  1  0.003813  0.285678  0.721933  1
  O  O14  1  0.054658  0.279861  0.472779  1
  O  O15  1  0.116758  0.174484  0.051754  1
  O  O16  1  0.384416  0.062021  0.658668  1
  O  O17  1  0.922619  0.090791  0.266993  1
  O  O18  1  0.283141  0.194235  0.318774  1
  O  O19  1  0.960580  0.352421  0.087223  1
  O  O20  1  0.886840  0.827739  0.940621  1
  O  O21  1  0.715277  0.813194  0.670497  1
  O  O22  1  0.696194  0.211990  0.539959  1
  O  O23  1  0.256838  0.044557  0.892318  1
  O  O24  1  0.613275  0.943908  0.329708  1
  O  O25  1  0.452450  0.834310  0.919772  1
  O  O26  1  0.800069  0.462411  0.452216  1
  O  O27  1  0.941170  0.727229  0.516488  1
  O  O28  1  0.993708  0.717774  0.269913  1
  O  O29  1  0.195642  0.543133  0.541025  1
  O  O30  1  0.637825  0.579269  0.148381  1
  O  O31  1  0.596661  0.562517  0.646769  1
  O  O32  1  0.557121  0.685093  0.306333  1
  O  O33  1  0.035943  0.650890  0.900123  1
  O  O34  1  0.300157  0.793402  0.450028  1
  O  O35  1  0.439626  0.320998  0.683741  1
  O  O36  1  0.078824  0.912843  0.724188  1
  O  O37  1  0.747173  0.959038  0.099239  1
  O  O38  1  0.399111  0.443843  0.344586  1
  O  O39  1  0.550971  0.170366  0.068269  1
