# generated using pymatgen
data_Cs2SbCl6
_symmetry_space_group_name_H-M   'P 1'
_cell_length_a   12.35601346
_cell_length_b   12.35601346
_cell_length_c   12.35601346
_cell_angle_alpha   131.48354850
_cell_angle_beta   131.48354850
_cell_angle_gamma   71.04593920
_symmetry_Int_Tables_number   1
_chemical_formula_structural   Cs2SbCl6
_chemical_formula_sum   'Cs8 Sb4 Cl24'
_cell_volume   1036.62803044
_cell_formula_units_Z   4
loop_
 _symmetry_equiv_pos_site_id
 _symmetry_equiv_pos_as_xyz
  1  'x, y, z'
loop_
 _atom_site_type_symbol
 _atom_site_label
 _atom_site_symmetry_multiplicity
 _atom_site_fract_x
 _atom_site_fract_y
 _atom_site_fract_z
 _atom_site_occupancy
  Cs  Cs0  1  0.500000  0.249489  0.749489  1
  Cs  Cs1  1  0.000000  0.750511  0.750511  1
  Cs  Cs2  1  0.750511  0.500001  0.750511  1
  Cs  Cs3  1  0.249489  0.000000  0.749489  1
  Cs  Cs4  1  0.500000  0.750511  0.250511  1
  Cs  Cs5  1  0.000000  0.249489  0.249489  1
  Cs  Cs6  1  0.249489  0.500001  0.249489  1
  Cs  Cs7  1  0.750511  0.000000  0.250511  1
  Sb  Sb8  1  0.625000  0.375000  0.250000  1
  Sb  Sb9  1  0.375000  0.625001  0.750001  1
  Sb  Sb10  1  0.124999  0.875000  0.250000  1
  Sb  Sb11  1  0.875000  0.125000  0.750000  1
  Cl  Cl12  1  0.248684  0.998685  0.250000  1
  Cl  Cl13  1  0.751316  0.001316  0.750001  1
  Cl  Cl14  1  0.001316  0.751316  0.250000  1
  Cl  Cl15  1  0.998685  0.248684  0.750001  1
  Cl  Cl16  1  0.869586  0.375441  0.494145  1
  Cl  Cl17  1  0.381297  0.375441  0.005856  1
  Cl  Cl18  1  0.130415  0.624559  0.505856  1
  Cl  Cl19  1  0.618704  0.624559  0.994145  1
  Cl  Cl20  1  0.624559  0.130414  0.005856  1
  Cl  Cl21  1  0.624559  0.618703  0.494145  1
  Cl  Cl22  1  0.375442  0.869586  0.994145  1
  Cl  Cl23  1  0.375442  0.381297  0.505856  1
  Cl  Cl24  1  0.369447  0.874843  0.494605  1
  Cl  Cl25  1  0.880238  0.874843  0.005396  1
  Cl  Cl26  1  0.630553  0.125157  0.505396  1
  Cl  Cl27  1  0.119762  0.125158  0.994605  1
  Cl  Cl28  1  0.125157  0.630552  0.005395  1
  Cl  Cl29  1  0.125157  0.119762  0.494605  1
  Cl  Cl30  1  0.874843  0.369447  0.994605  1
  Cl  Cl31  1  0.874843  0.880239  0.505396  1
  Cl  Cl32  1  0.501613  0.251613  0.250000  1
  Cl  Cl33  1  0.498387  0.748387  0.750001  1
  Cl  Cl34  1  0.748387  0.498386  0.250000  1
  Cl  Cl35  1  0.251614  0.501614  0.750001  1
