# generated using pymatgen
data_CrO2
_symmetry_space_group_name_H-M   'P 1'
_cell_length_a   3.17957607
_cell_length_b   3.18984375
_cell_length_c   11.08358457
_cell_angle_alpha   90.12229332
_cell_angle_beta   90.35058967
_cell_angle_gamma   121.53443014
_symmetry_Int_Tables_number   1
_chemical_formula_structural   CrO2
_chemical_formula_sum   'Cr2 O4'
_cell_volume   95.80936973
_cell_formula_units_Z   2
loop_
 _symmetry_equiv_pos_site_id
 _symmetry_equiv_pos_as_xyz
  1  'x, y, z'
loop_
 _atom_site_type_symbol
 _atom_site_label
 _atom_site_symmetry_multiplicity
 _atom_site_fract_x
 _atom_site_fract_y
 _atom_site_fract_z
 _atom_site_occupancy
  Cr  Cr0  1  0.998043  0.999587  0.501773  1
  Cr  Cr1  1  0.998107  0.000171  0.002513  1
  O  O2  1  0.663974  0.340012  0.409202  1
  O  O3  1  0.657141  0.330922  0.094665  1
  O  O4  1  0.331347  0.659314  0.594302  1
  O  O5  1  0.338062  0.668432  0.910003  1
