# generated using pymatgen
data_Fe3(PO4)4
_symmetry_space_group_name_H-M   'P 1'
_cell_length_a   6.59483728
_cell_length_b   10.43263604
_cell_length_c   11.08674007
_cell_angle_alpha   92.46374642
_cell_angle_beta   89.85642298
_cell_angle_gamma   71.48211703
_symmetry_Int_Tables_number   1
_chemical_formula_structural   Fe3(PO4)4
_chemical_formula_sum   'Fe6 P8 O32'
_cell_volume   722.51753234
_cell_formula_units_Z   2
loop_
 _symmetry_equiv_pos_site_id
 _symmetry_equiv_pos_as_xyz
  1  'x, y, z'
loop_
 _atom_site_type_symbol
 _atom_site_label
 _atom_site_symmetry_multiplicity
 _atom_site_fract_x
 _atom_site_fract_y
 _atom_site_fract_z
 _atom_site_occupancy
  Fe  Fe0  1  0.000000  0.500000  0.500000  1
  Fe  Fe1  1  0.328442  0.309861  0.747361  1
  Fe  Fe2  1  0.366461  0.302198  0.246966  1
  Fe  Fe3  1  0.500000  0.500000  0.000000  1
  Fe  Fe4  1  0.633539  0.697802  0.753034  1
  Fe  Fe5  1  0.671558  0.690139  0.252639  1
  P  P6  1  0.814656  0.403989  0.245003  1
  P  P7  1  0.781467  0.404908  0.745344  1
  P  P8  1  0.424199  0.825608  0.014254  1
  P  P9  1  0.575801  0.174392  0.985746  1
  P  P10  1  0.218533  0.595092  0.254656  1
  P  P11  1  0.185344  0.596011  0.754997  1
  P  P12  1  0.747815  0.825490  0.510044  1
  P  P13  1  0.252185  0.174510  0.489956  1
  O  O14  1  0.234787  0.955781  0.033338  1
  O  O15  1  0.017833  0.313928  0.765188  1
  O  O16  1  0.044705  0.311424  0.491725  1
  O  O17  1  0.192225  0.044308  0.476968  1
  O  O18  1  0.051954  0.315942  0.220776  1
  O  O19  1  0.212786  0.480142  0.642742  1
  O  O20  1  0.982167  0.686072  0.234812  1
  O  O21  1  0.955295  0.688576  0.508275  1
  O  O22  1  0.807775  0.955692  0.523032  1
  O  O23  1  0.948046  0.684058  0.779224  1
  O  O24  1  0.787214  0.519858  0.357258  1
  O  O25  1  0.626519  0.817518  0.382817  1
  O  O26  1  0.762810  0.514770  0.640641  1
  O  O27  1  0.597098  0.805848  0.122848  1
  O  O28  1  0.592354  0.809286  0.616390  1
  O  O29  1  0.724983  0.517054  0.141272  1
  O  O30  1  0.554773  0.821378  0.889932  1
  O  O31  1  0.690051  0.517374  0.858653  1
  O  O32  1  0.667690  0.315439  0.265304  1
  O  O33  1  0.237189  0.485230  0.359359  1
  O  O34  1  0.765213  0.044219  0.966662  1
  O  O35  1  0.634251  0.314437  0.721490  1
  O  O36  1  0.365749  0.685563  0.278510  1
  O  O37  1  0.645165  0.311195  0.990453  1
  O  O38  1  0.354835  0.688805  0.009547  1
  O  O39  1  0.332310  0.684561  0.734696  1
  O  O40  1  0.309949  0.482626  0.141347  1
  O  O41  1  0.445227  0.178622  0.110068  1
  O  O42  1  0.275017  0.482946  0.858727  1
  O  O43  1  0.407646  0.190714  0.383610  1
  O  O44  1  0.402902  0.194152  0.877152  1
  O  O45  1  0.373481  0.182482  0.617183  1
