# generated using pymatgen
data_Mn2P2O9
_symmetry_space_group_name_H-M   'P 1'
_cell_length_a   6.19628434
_cell_length_b   7.63689736
_cell_length_c   13.81512858
_cell_angle_alpha   90.11167981
_cell_angle_beta   90.00013825
_cell_angle_gamma   90.00053953
_symmetry_Int_Tables_number   1
_chemical_formula_structural   Mn2P2O9
_chemical_formula_sum   'Mn8 P8 O36'
_cell_volume   653.73599582
_cell_formula_units_Z   4
loop_
 _symmetry_equiv_pos_site_id
 _symmetry_equiv_pos_as_xyz
  1  'x, y, z'
loop_
 _atom_site_type_symbol
 _atom_site_label
 _atom_site_symmetry_multiplicity
 _atom_site_fract_x
 _atom_site_fract_y
 _atom_site_fract_z
 _atom_site_occupancy
  Mn  Mn0  1  0.750000  0.353923  0.874314  1
  Mn  Mn1  1  0.250002  0.646038  0.125724  1
  Mn  Mn2  1  0.250018  0.854889  0.624967  1
  Mn  Mn3  1  0.750034  0.144938  0.374995  1
  Mn  Mn4  1  0.500016  0.999990  0.000004  1
  Mn  Mn5  1  0.500088  0.499966  0.500029  1
  Mn  Mn6  1  0.999876  0.499918  0.500049  1
  Mn  Mn7  1  0.999980  0.999979  0.000014  1
  P  P8  1  0.249985  0.354156  0.936836  1
  P  P9  1  0.750028  0.645865  0.063155  1
  P  P10  1  0.750021  0.853362  0.561833  1
  P  P11  1  0.250003  0.146613  0.438187  1
  P  P12  1  0.749950  0.395313  0.689996  1
  P  P13  1  0.749959  0.105359  0.190714  1
  P  P14  1  0.250008  0.894765  0.809239  1
  P  P15  1  0.250030  0.604692  0.310007  1
  O  O16  1  0.043355  0.594301  0.373032  1
  O  O17  1  0.543332  0.405685  0.626998  1
  O  O18  1  0.956573  0.094267  0.128052  1
  O  O19  1  0.456533  0.905737  0.871931  1
  O  O20  1  0.956692  0.405670  0.627004  1
  O  O21  1  0.456627  0.594296  0.373010  1
  O  O22  1  0.043445  0.905757  0.871941  1
  O  O23  1  0.543446  0.094250  0.128042  1
  O  O24  1  0.250021  0.338787  0.485139  1
  O  O25  1  0.749968  0.661181  0.514880  1
  O  O26  1  0.749999  0.837445  0.014828  1
  O  O27  1  0.250000  0.162570  0.985152  1
  O  O28  1  0.749998  0.136306  0.951105  1
  O  O29  1  0.249996  0.863639  0.048893  1
  O  O30  1  0.250055  0.637444  0.549296  1
  O  O31  1  0.750008  0.362517  0.450689  1
  O  O32  1  0.749996  0.225107  0.752277  1
  O  O33  1  0.249996  0.774852  0.247739  1
  O  O34  1  0.249999  0.724846  0.746337  1
  O  O35  1  0.749916  0.275241  0.253613  1
  O  O36  1  0.446876  0.143135  0.371782  1
  O  O37  1  0.946866  0.856917  0.628200  1
  O  O38  1  0.552899  0.644115  0.129475  1
  O  O39  1  0.052954  0.355937  0.870520  1
  O  O40  1  0.553117  0.856914  0.628216  1
  O  O41  1  0.053167  0.143156  0.371805  1
  O  O42  1  0.447081  0.355930  0.870518  1
  O  O43  1  0.947081  0.644117  0.129472  1
  O  O44  1  0.750008  0.511021  0.983692  1
  O  O45  1  0.250001  0.032433  0.724592  1
  O  O46  1  0.250008  0.467318  0.225435  1
  O  O47  1  0.750001  0.532761  0.774575  1
  O  O48  1  0.749994  0.990001  0.483144  1
  O  O49  1  0.249983  0.009967  0.516854  1
  O  O50  1  0.250000  0.489017  0.016305  1
  O  O51  1  0.750028  0.967595  0.275396  1
