# generated using pymatgen
data_VS2
_symmetry_space_group_name_H-M   'P 1'
_cell_length_a   6.63493719
_cell_length_b   6.63493760
_cell_length_c   6.63493854
_cell_angle_alpha   27.70707536
_cell_angle_beta   27.70706890
_cell_angle_gamma   27.70706882
_symmetry_Int_Tables_number   1
_chemical_formula_structural   VS2
_chemical_formula_sum   'V1 S2'
_cell_volume   55.74800048
_cell_formula_units_Z   1
loop_
 _symmetry_equiv_pos_site_id
 _symmetry_equiv_pos_as_xyz
  1  'x, y, z'
loop_
 _atom_site_type_symbol
 _atom_site_label
 _atom_site_symmetry_multiplicity
 _atom_site_fract_x
 _atom_site_fract_y
 _atom_site_fract_z
 _atom_site_occupancy
  V  V0  1  0.000000  0.000000  0.000000  1
  S  S1  1  0.750408  0.750408  0.750408  1
  S  S2  1  0.249592  0.249592  0.249592  1
