# generated using pymatgen
data_Nb2(PO4)3
_symmetry_space_group_name_H-M   'P 1'
_cell_length_a   8.92164303
_cell_length_b   8.92164303
_cell_length_c   8.92164303
_cell_angle_alpha   58.34395115
_cell_angle_beta   58.34395113
_cell_angle_gamma   58.34395114
_symmetry_Int_Tables_number   1
_chemical_formula_structural   Nb2(PO4)3
_chemical_formula_sum   'Nb4 P6 O24'
_cell_volume   483.09471297
_cell_formula_units_Z   2
loop_
 _symmetry_equiv_pos_site_id
 _symmetry_equiv_pos_as_xyz
  1  'x, y, z'
loop_
 _atom_site_type_symbol
 _atom_site_label
 _atom_site_symmetry_multiplicity
 _atom_site_fract_x
 _atom_site_fract_y
 _atom_site_fract_z
 _atom_site_occupancy
  O  O0  1  0.792800  0.421200  0.560800  1
  O  O1  1  0.421200  0.560800  0.792800  1
  O  O2  1  0.560800  0.792800  0.421200  1
  O  O3  1  0.939200  0.078800  0.707200  1
  O  O4  1  0.078800  0.707200  0.939200  1
  O  O5  1  0.707200  0.939200  0.078800  1
  O  O6  1  0.207200  0.578800  0.439200  1
  O  O7  1  0.578800  0.439200  0.207200  1
  O  O8  1  0.439200  0.207200  0.578800  1
  O  O9  1  0.060800  0.921200  0.292800  1
  O  O10  1  0.363500  0.996200  0.223200  1
  O  O11  1  0.223200  0.363500  0.996200  1
  O  O12  1  0.996200  0.223200  0.363500  1
  O  O13  1  0.503800  0.136500  0.276800  1
  O  O14  1  0.276800  0.503800  0.136500  1
  O  O15  1  0.136500  0.276800  0.503800  1
  O  O16  1  0.636500  0.003800  0.776800  1
  O  O17  1  0.776800  0.636500  0.003800  1
  O  O18  1  0.003800  0.776800  0.636500  1
  O  O19  1  0.496200  0.863500  0.723200  1
  O  O20  1  0.723200  0.496200  0.863500  1
  O  O21  1  0.863500  0.723200  0.496200  1
  O  O22  1  0.292800  0.060800  0.921200  1
  O  O23  1  0.921200  0.292800  0.060800  1
  P  P24  1  0.032100  0.750000  0.467900  1
  P  P25  1  0.750000  0.467900  0.032100  1
  P  P26  1  0.467900  0.032100  0.750000  1
  P  P27  1  0.967900  0.250000  0.532100  1
  P  P28  1  0.250000  0.532100  0.967900  1
  P  P29  1  0.532100  0.967900  0.250000  1
  Nb  Nb30  1  0.641310  0.641310  0.641310  1
  Nb  Nb31  1  0.858690  0.858690  0.858690  1
  Nb  Nb32  1  0.358690  0.358690  0.358690  1
  Nb  Nb33  1  0.141310  0.141310  0.141310  1
