# generated using pymatgen
data_Mn3P3O13
_symmetry_space_group_name_H-M   'P 1'
_cell_length_a   6.20701527
_cell_length_b   7.42716895
_cell_length_c   10.46556887
_cell_angle_alpha   99.40128135
_cell_angle_beta   90.00000000
_cell_angle_gamma   90.00000000
_symmetry_Int_Tables_number   1
_chemical_formula_structural   Mn3P3O13
_chemical_formula_sum   'Mn6 P6 O26'
_cell_volume   475.98822068
_cell_formula_units_Z   2
loop_
 _symmetry_equiv_pos_site_id
 _symmetry_equiv_pos_as_xyz
  1  'x, y, z'
loop_
 _atom_site_type_symbol
 _atom_site_label
 _atom_site_symmetry_multiplicity
 _atom_site_fract_x
 _atom_site_fract_y
 _atom_site_fract_z
 _atom_site_occupancy
  Mn  Mn0  1  0.250000  0.368669  0.196924  1
  Mn  Mn1  1  0.750000  0.631331  0.803076  1
  Mn  Mn2  1  0.250000  0.765777  0.447370  1
  Mn  Mn3  1  0.500000  0.000000  0.000000  1
  Mn  Mn4  1  0.750000  0.234223  0.552630  1
  Mn  Mn5  1  0.000000  0.000000  0.000000  1
  P  P6  1  0.250000  0.213074  0.473721  1
  P  P7  1  0.750000  0.786926  0.526279  1
  P  P8  1  0.250000  0.739555  0.768187  1
  P  P9  1  0.750000  0.260445  0.231813  1
  P  P10  1  0.750000  0.306634  0.883225  1
  P  P11  1  0.250000  0.693366  0.116775  1
  O  O12  1  0.750000  0.352071  0.741027  1
  O  O13  1  0.553961  0.740869  0.434952  1
  O  O14  1  0.250000  0.802575  0.637185  1
  O  O15  1  0.544873  0.203266  0.910967  1
  O  O16  1  0.750000  0.649049  0.623533  1
  O  O17  1  0.750000  0.872944  0.899359  1
  O  O18  1  0.250000  0.350951  0.376467  1
  O  O19  1  0.044873  0.796734  0.089033  1
  O  O20  1  0.250000  0.018848  0.399927  1
  O  O21  1  0.750000  0.981152  0.600073  1
  O  O22  1  0.054216  0.628195  0.796997  1
  O  O23  1  0.250000  0.127056  0.100641  1
  O  O24  1  0.554215  0.371805  0.203003  1
  O  O25  1  0.750000  0.509265  0.953095  1
  O  O26  1  0.750000  0.197425  0.362815  1
  O  O27  1  0.455127  0.796734  0.089033  1
  O  O28  1  0.946039  0.740869  0.434952  1
  O  O29  1  0.446039  0.259131  0.565048  1
  O  O30  1  0.445785  0.628195  0.796997  1
  O  O31  1  0.250000  0.647929  0.258973  1
  O  O32  1  0.750000  0.079637  0.121960  1
  O  O33  1  0.250000  0.920363  0.878040  1
  O  O34  1  0.945785  0.371805  0.203003  1
  O  O35  1  0.955127  0.203266  0.910967  1
  O  O36  1  0.053961  0.259131  0.565048  1
  O  O37  1  0.250000  0.490735  0.046905  1
