# generated using pymatgen
data_Fe4P9O32
_symmetry_space_group_name_H-M   'P 1'
_cell_length_a   14.25176100
_cell_length_b   14.25176100
_cell_length_c   6.42671700
_cell_angle_alpha   90.00000000
_cell_angle_beta   90.00000000
_cell_angle_gamma   90.00000000
_symmetry_Int_Tables_number   1
_chemical_formula_structural   Fe4P9O32
_chemical_formula_sum   'Fe8 P18 O64'
_cell_volume   1305.34778803
_cell_formula_units_Z   2
loop_
 _symmetry_equiv_pos_site_id
 _symmetry_equiv_pos_as_xyz
  1  'x, y, z'
loop_
 _atom_site_type_symbol
 _atom_site_label
 _atom_site_symmetry_multiplicity
 _atom_site_fract_x
 _atom_site_fract_y
 _atom_site_fract_z
 _atom_site_occupancy
  Fe  Fe0  1  0.619125  0.301135  0.875747  1
  Fe  Fe1  1  0.198865  0.880875  0.375747  1
  Fe  Fe2  1  0.801135  0.119125  0.375747  1
  Fe  Fe3  1  0.380875  0.698865  0.875747  1
  Fe  Fe4  1  0.301135  0.380875  0.124253  1
  Fe  Fe5  1  0.698865  0.619125  0.124253  1
  Fe  Fe6  1  0.119125  0.198865  0.624253  1
  Fe  Fe7  1  0.880875  0.801135  0.624253  1
  P  P8  1  0.246883  0.892506  0.865072  1
  P  P9  1  0.699868  0.940397  0.615987  1
  P  P10  1  0.059603  0.699868  0.384013  1
  P  P11  1  0.107494  0.246883  0.134928  1
  P  P12  1  0.440397  0.199868  0.115987  1
  P  P13  1  0.559603  0.800132  0.115987  1
  P  P14  1  0.500000  0.500000  0.000000  1
  P  P15  1  0.800132  0.440397  0.884013  1
  P  P16  1  0.253117  0.392506  0.634928  1
  P  P17  1  0.940397  0.300132  0.384013  1
  P  P18  1  0.199868  0.559603  0.884013  1
  P  P19  1  0.892506  0.753117  0.134928  1
  P  P20  1  0.392506  0.746883  0.365072  1
  P  P21  1  0.746883  0.607494  0.634928  1
  P  P22  1  0.753117  0.107494  0.865072  1
  P  P23  1  0.000000  0.000000  0.500000  1
  P  P24  1  0.300132  0.059603  0.615987  1
  P  P25  1  0.607494  0.253117  0.365072  1
  O  O26  1  0.833764  0.662048  0.125984  1
  O  O27  1  0.934255  0.061477  0.359815  1
  O  O28  1  0.507137  0.758931  0.926483  1
  O  O29  1  0.221311  0.501480  0.671090  1
  O  O30  1  0.278689  0.001480  0.828910  1
  O  O31  1  0.162048  0.333764  0.625984  1
  O  O32  1  0.865472  0.818414  0.318536  1
  O  O33  1  0.998520  0.278689  0.171090  1
  O  O34  1  0.166236  0.337952  0.125984  1
  O  O35  1  0.134528  0.181586  0.318536  1
  O  O36  1  0.318414  0.365472  0.818536  1
  O  O37  1  0.333764  0.837952  0.374016  1
  O  O38  1  0.808839  0.106186  0.069029  1
  O  O39  1  0.744476  0.842514  0.649503  1
  O  O40  1  0.818414  0.134528  0.681464  1
  O  O41  1  0.691161  0.606186  0.430971  1
  O  O42  1  0.662048  0.166236  0.874016  1
  O  O43  1  0.255524  0.157486  0.649503  1
  O  O44  1  0.092347  0.571285  0.905771  1
  O  O45  1  0.592347  0.928715  0.594229  1
  O  O46  1  0.407653  0.071285  0.594229  1
  O  O47  1  0.571285  0.907653  0.094229  1
  O  O48  1  0.007137  0.741069  0.573517  1
  O  O49  1  0.501480  0.778689  0.328910  1
  O  O50  1  0.992863  0.258931  0.573517  1
  O  O51  1  0.492863  0.241069  0.926483  1
  O  O52  1  0.065745  0.938523  0.359815  1
  O  O53  1  0.428715  0.092347  0.094229  1
  O  O54  1  0.938523  0.934255  0.640185  1
  O  O55  1  0.837952  0.666236  0.625984  1
  O  O56  1  0.565745  0.561477  0.140185  1
  O  O57  1  0.181586  0.865472  0.681464  1
  O  O58  1  0.928715  0.407653  0.405771  1
  O  O59  1  0.606186  0.308839  0.569029  1
  O  O60  1  0.755524  0.342514  0.850497  1
  O  O61  1  0.342514  0.244476  0.149503  1
  O  O62  1  0.191161  0.893814  0.069029  1
  O  O63  1  0.681586  0.634528  0.818536  1
  O  O64  1  0.721311  0.998520  0.828910  1
  O  O65  1  0.106186  0.191161  0.930971  1
  O  O66  1  0.258931  0.007137  0.426483  1
  O  O67  1  0.893814  0.808839  0.930971  1
  O  O68  1  0.071285  0.592347  0.405771  1
  O  O69  1  0.393814  0.691161  0.569029  1
  O  O70  1  0.241069  0.507137  0.073517  1
  O  O71  1  0.907653  0.428715  0.905771  1
  O  O72  1  0.337952  0.833764  0.874016  1
  O  O73  1  0.657486  0.755524  0.149503  1
  O  O74  1  0.365472  0.681586  0.181464  1
  O  O75  1  0.308839  0.393814  0.430971  1
  O  O76  1  0.244476  0.657486  0.850497  1
  O  O77  1  0.666236  0.162048  0.374016  1
  O  O78  1  0.001480  0.721311  0.171090  1
  O  O79  1  0.434255  0.438523  0.140185  1
  O  O80  1  0.634528  0.318414  0.181464  1
  O  O81  1  0.758931  0.492863  0.073517  1
  O  O82  1  0.561477  0.434255  0.859815  1
  O  O83  1  0.061477  0.065745  0.640185  1
  O  O84  1  0.438523  0.565745  0.859815  1
  O  O85  1  0.498520  0.221311  0.328910  1
  O  O86  1  0.842514  0.255524  0.350497  1
  O  O87  1  0.157486  0.744476  0.350497  1
  O  O88  1  0.778689  0.498520  0.671090  1
  O  O89  1  0.741069  0.992863  0.426483  1
