# generated using pymatgen
data_Mo3P3O13
_symmetry_space_group_name_H-M   'P 1'
_cell_length_a   6.59427720
_cell_length_b   7.67917781
_cell_length_c   10.98112259
_cell_angle_alpha   99.00256270
_cell_angle_beta   90.00000000
_cell_angle_gamma   90.00000000
_symmetry_Int_Tables_number   1
_chemical_formula_structural   Mo3P3O13
_chemical_formula_sum   'Mo6 P6 O26'
_cell_volume   549.21894951
_cell_formula_units_Z   2
loop_
 _symmetry_equiv_pos_site_id
 _symmetry_equiv_pos_as_xyz
  1  'x, y, z'
loop_
 _atom_site_type_symbol
 _atom_site_label
 _atom_site_symmetry_multiplicity
 _atom_site_fract_x
 _atom_site_fract_y
 _atom_site_fract_z
 _atom_site_occupancy
  Mo  Mo0  1  0.250000  0.369234  0.203152  1
  Mo  Mo1  1  0.750000  0.630766  0.796848  1
  Mo  Mo2  1  0.250000  0.770425  0.449750  1
  Mo  Mo3  1  0.500000  0.000000  0.000000  1
  Mo  Mo4  1  0.750000  0.229575  0.550250  1
  Mo  Mo5  1  0.000000  0.000000  0.000000  1
  P  P6  1  0.250000  0.211648  0.479535  1
  P  P7  1  0.750000  0.788352  0.520465  1
  P  P8  1  0.250000  0.744181  0.768689  1
  P  P9  1  0.750000  0.255819  0.231311  1
  P  P10  1  0.750000  0.308093  0.881188  1
  P  P11  1  0.250000  0.691907  0.118812  1
  O  O12  1  0.750000  0.340563  0.743894  1
  O  O13  1  0.563034  0.744647  0.440246  1
  O  O14  1  0.250000  0.805994  0.644833  1
  O  O15  1  0.558249  0.206749  0.909762  1
  O  O16  1  0.750000  0.660190  0.620844  1
  O  O17  1  0.750000  0.875816  0.913288  1
  O  O18  1  0.250000  0.339810  0.379156  1
  O  O19  1  0.058249  0.793251  0.090238  1
  O  O20  1  0.250000  0.022230  0.405942  1
  O  O21  1  0.750000  0.977770  0.594058  1
  O  O22  1  0.059487  0.637894  0.791930  1
  O  O23  1  0.250000  0.124184  0.086712  1
  O  O24  1  0.559487  0.362106  0.208070  1
  O  O25  1  0.750000  0.502184  0.948966  1
  O  O26  1  0.750000  0.194006  0.355167  1
  O  O27  1  0.441751  0.793251  0.090238  1
  O  O28  1  0.936966  0.744647  0.440246  1
  O  O29  1  0.436966  0.255353  0.559754  1
  O  O30  1  0.440513  0.637894  0.791930  1
  O  O31  1  0.250000  0.659437  0.256106  1
  O  O32  1  0.750000  0.087377  0.123565  1
  O  O33  1  0.250000  0.912623  0.876435  1
  O  O34  1  0.940513  0.362106  0.208070  1
  O  O35  1  0.941751  0.206749  0.909762  1
  O  O36  1  0.063034  0.255353  0.559754  1
  O  O37  1  0.250000  0.497816  0.051034  1
