# generated using pymatgen
data_NbO3
_symmetry_space_group_name_H-M   'P 1'
_cell_length_a   3.74144900
_cell_length_b   3.74144900
_cell_length_c   3.74144900
_cell_angle_alpha   90.00000000
_cell_angle_beta   90.00000000
_cell_angle_gamma   90.00000000
_symmetry_Int_Tables_number   1
_chemical_formula_structural   NbO3
_chemical_formula_sum   'Nb1 O3'
_cell_volume   52.37445166
_cell_formula_units_Z   1
loop_
 _symmetry_equiv_pos_site_id
 _symmetry_equiv_pos_as_xyz
  1  'x, y, z'
loop_
 _atom_site_type_symbol
 _atom_site_label
 _atom_site_symmetry_multiplicity
 _atom_site_fract_x
 _atom_site_fract_y
 _atom_site_fract_z
 _atom_site_occupancy
  Nb  Nb0  1  0.000000  0.000000  0.000000  1
  O  O1  1  0.500000  0.000000  0.060000  1
  O  O2  1  0.000000  0.940000  0.500000  1
  O  O3  1  0.000000  0.500000  0.940000  1
