# generated using pymatgen
data_Na4Co2C4SO16
_symmetry_space_group_name_H-M   'P 1'
_cell_length_a   9.92815129
_cell_length_b   10.06341862
_cell_length_c   10.06341822
_cell_angle_alpha   91.43099676
_cell_angle_beta   60.38591190
_cell_angle_gamma   60.38591509
_symmetry_Int_Tables_number   1
_chemical_formula_structural   Na4Co2C4SO16
_chemical_formula_sum   'Na8 Co4 C8 S2 O32'
_cell_volume   710.10550627
_cell_formula_units_Z   2
loop_
 _symmetry_equiv_pos_site_id
 _symmetry_equiv_pos_as_xyz
  1  'x, y, z'
loop_
 _atom_site_type_symbol
 _atom_site_label
 _atom_site_symmetry_multiplicity
 _atom_site_fract_x
 _atom_site_fract_y
 _atom_site_fract_z
 _atom_site_occupancy
  Na  Na0  1  0.250000  0.335920  0.085920  1
  Na  Na1  1  0.328108  0.085946  0.335946  1
  Na  Na2  1  0.171892  0.664054  0.914054  1
  Na  Na3  1  0.750000  0.085920  0.335920  1
  Na  Na4  1  0.250000  0.914080  0.664080  1
  Na  Na5  1  0.828108  0.335946  0.085946  1
  Na  Na6  1  0.671892  0.914054  0.664054  1
  Na  Na7  1  0.750000  0.664080  0.914080  1
  Co  Co8  1  0.000000  0.000000  0.500000  1
  Co  Co9  1  0.000000  0.500000  0.500000  1
  Co  Co10  1  0.500000  0.500000  0.000000  1
  Co  Co11  1  0.500000  0.500000  0.500000  1
  C  C12  1  0.069558  0.712742  0.289196  1
  C  C13  1  0.069558  0.717700  0.641246  1
  C  C14  1  0.430442  0.358754  0.282300  1
  C  C15  1  0.430442  0.710804  0.287258  1
  C  C16  1  0.569558  0.289196  0.712742  1
  C  C17  1  0.569558  0.641246  0.717700  1
  C  C18  1  0.930442  0.282300  0.358754  1
  C  C19  1  0.930442  0.287258  0.710804  1
  S  S20  1  0.250000  0.125000  0.875000  1
  S  S21  1  0.750000  0.875000  0.125000  1
  O  O22  1  0.045112  0.142375  0.363682  1
  O  O23  1  0.045112  0.312513  0.591206  1
  O  O24  1  0.209273  0.595528  0.142114  1
  O  O25  1  0.038011  0.857972  0.315188  1
  O  O26  1  0.290727  0.351387  0.304801  1
  O  O27  1  0.122344  0.065340  0.934877  1
  O  O28  1  0.038011  0.604017  0.646801  1
  O  O29  1  0.377656  0.057221  0.687685  1
  O  O30  1  0.122344  0.312315  0.942779  1
  O  O31  1  0.545112  0.363682  0.142375  1
  O  O32  1  0.461989  0.353199  0.395983  1
  O  O33  1  0.377656  0.065123  0.934660  1
  O  O34  1  0.209273  0.695199  0.648613  1
  O  O35  1  0.461989  0.684812  0.142028  1
  O  O36  1  0.290727  0.857886  0.404472  1
  O  O37  1  0.545112  0.591206  0.312513  1
  O  O38  1  0.454888  0.408794  0.687487  1
  O  O39  1  0.709273  0.142114  0.595528  1
  O  O40  1  0.538011  0.315188  0.857972  1
  O  O41  1  0.790727  0.304801  0.351387  1
  O  O42  1  0.622344  0.934877  0.065340  1
  O  O43  1  0.538011  0.646801  0.604017  1
  O  O44  1  0.454888  0.636318  0.857625  1
  O  O45  1  0.877656  0.687685  0.057221  1
  O  O46  1  0.622344  0.942779  0.312315  1
  O  O47  1  0.961989  0.395983  0.353199  1
  O  O48  1  0.877656  0.934660  0.065123  1
  O  O49  1  0.709273  0.648613  0.695199  1
  O  O50  1  0.961989  0.142028  0.684812  1
  O  O51  1  0.790727  0.404472  0.857886  1
  O  O52  1  0.954888  0.687487  0.408794  1
  O  O53  1  0.954888  0.857625  0.636318  1
