# generated using pymatgen
data_Na2MnCoNiO6
_symmetry_space_group_name_H-M   'P 1'
_cell_length_a   3.03128893
_cell_length_b   7.44047536
_cell_length_c   6.92941639
_cell_angle_alpha   66.66958913
_cell_angle_beta   92.47329339
_cell_angle_gamma   78.28788838
_symmetry_Int_Tables_number   1
_chemical_formula_structural   Na2MnCoNiO6
_chemical_formula_sum   'Na2 Mn1 Co1 Ni1 O6'
_cell_volume   139.18822156
_cell_formula_units_Z   1
loop_
 _symmetry_equiv_pos_site_id
 _symmetry_equiv_pos_as_xyz
  1  'x, y, z'
loop_
 _atom_site_type_symbol
 _atom_site_label
 _atom_site_symmetry_multiplicity
 _atom_site_fract_x
 _atom_site_fract_y
 _atom_site_fract_z
 _atom_site_occupancy
  Na  Na0  1  0.586133  0.900933  0.607867  1
  Na  Na1  1  0.747200  0.432400  0.058800  1
  Mn  Mn2  1  0.666667  0.666667  0.333333  1
  Co  Co3  1  0.333333  0.333333  0.666667  1
  Ni  Ni4  1  0.000000  0.000000  0.000000  1
  O  O5  1  0.600067  0.812867  0.012833  1
  O  O6  1  0.933400  0.146200  0.679500  1
  O  O7  1  0.266733  0.479533  0.346167  1
  O  O8  1  0.733267  0.520467  0.653833  1
  O  O9  1  0.066600  0.853800  0.320500  1
  O  O10  1  0.399933  0.187133  0.987167  1
