# generated using pymatgen
data_Na2BiBAsO7
_symmetry_space_group_name_H-M   'P 1'
_cell_length_a   9.67371169
_cell_length_b   7.30866800
_cell_length_c   5.53580652
_cell_angle_alpha   90.00000000
_cell_angle_beta   91.73458451
_cell_angle_gamma   90.00000000
_symmetry_Int_Tables_number   1
_chemical_formula_structural   Na2BiBAsO7
_chemical_formula_sum   'Na4 Bi2 B2 As2 O14'
_cell_volume   391.21295197
_cell_formula_units_Z   2
loop_
 _symmetry_equiv_pos_site_id
 _symmetry_equiv_pos_as_xyz
  1  'x, y, z'
loop_
 _atom_site_type_symbol
 _atom_site_label
 _atom_site_symmetry_multiplicity
 _atom_site_fract_x
 _atom_site_fract_y
 _atom_site_fract_z
 _atom_site_occupancy
  Na  Na0  1  0.204585  0.506398  0.230645  1
  Na  Na1  1  0.204585  0.993602  0.230645  1
  Na  Na2  1  0.795415  0.493602  0.769355  1
  Na  Na3  1  0.795415  0.006398  0.769355  1
  Bi  Bi4  1  0.357642  0.750000  0.779877  1
  Bi  Bi5  1  0.642358  0.250000  0.220123  1
  B  B6  1  0.075026  0.750000  0.734321  1
  B  B7  1  0.924974  0.250000  0.265679  1
  As  As8  1  0.405746  0.250000  0.719736  1
  As  As9  1  0.594254  0.750000  0.280264  1
  O  O10  1  0.066788  0.250000  0.299424  1
  O  O11  1  0.147489  0.750000  0.956691  1
  O  O12  1  0.153527  0.750000  0.523566  1
  O  O13  1  0.324762  0.061707  0.846561  1
  O  O14  1  0.324762  0.438293  0.846561  1
  O  O15  1  0.415203  0.750000  0.193770  1
  O  O16  1  0.395658  0.250000  0.408239  1
  O  O17  1  0.604342  0.750000  0.591761  1
  O  O18  1  0.584797  0.250000  0.806230  1
  O  O19  1  0.675238  0.561707  0.153439  1
  O  O20  1  0.675238  0.938293  0.153439  1
  O  O21  1  0.846473  0.250000  0.476434  1
  O  O22  1  0.852511  0.250000  0.043309  1
  O  O23  1  0.933212  0.750000  0.700576  1
