# generated using pymatgen
data_Fe7(PO4)8
_symmetry_space_group_name_H-M   'P 1'
_cell_length_a   7.78215930
_cell_length_b   7.78215934
_cell_length_c   11.24638370
_cell_angle_alpha   73.74440044
_cell_angle_beta   106.25559901
_cell_angle_gamma   78.38815450
_symmetry_Int_Tables_number   1
_chemical_formula_structural   Fe7(PO4)8
_chemical_formula_sum   'Fe7 P8 O32'
_cell_volume   598.14278601
_cell_formula_units_Z   1
loop_
 _symmetry_equiv_pos_site_id
 _symmetry_equiv_pos_as_xyz
  1  'x, y, z'
loop_
 _atom_site_type_symbol
 _atom_site_label
 _atom_site_symmetry_multiplicity
 _atom_site_fract_x
 _atom_site_fract_y
 _atom_site_fract_z
 _atom_site_occupancy
  Fe  Fe0  1  0.005940  0.744060  0.775965  1
  Fe  Fe1  1  0.022807  0.727193  0.274229  1
  Fe  Fe2  1  0.485876  0.776109  0.725526  1
  Fe  Fe3  1  0.522149  0.227851  0.277073  1
  Fe  Fe4  1  0.493967  0.754258  0.225353  1
  Fe  Fe5  1  0.973891  0.264124  0.725526  1
  Fe  Fe6  1  0.995742  0.256033  0.225353  1
  P  P7  1  0.137889  0.612111  0.600295  1
  P  P8  1  0.285794  0.961251  0.896853  1
  P  P9  1  0.210552  0.539448  0.102356  1
  P  P10  1  0.357061  0.893599  0.399117  1
  P  P11  1  0.649693  0.100307  0.601044  1
  P  P12  1  0.788749  0.464206  0.896853  1
  P  P13  1  0.711275  0.038725  0.106745  1
  P  P14  1  0.856401  0.392939  0.399117  1
  O  O15  1  0.008440  0.542589  0.674529  1
  O  O16  1  0.174595  0.575405  0.956176  1
  O  O17  1  0.250749  0.172284  0.819945  1
  O  O18  1  0.078046  0.956036  0.829597  1
  O  O19  1  0.027484  0.722516  0.450701  1
  O  O20  1  0.194020  0.058197  0.378888  1
  O  O21  1  0.207411  0.741560  0.674529  1
  O  O22  1  0.290714  0.459286  0.593573  1
  O  O23  1  0.066350  0.683650  0.122381  1
  O  O24  1  0.220828  0.331299  0.179107  1
  O  O25  1  0.431735  0.822763  0.875119  1
  O  O26  1  0.519330  0.027672  0.671378  1
  O  O27  1  0.290567  0.761349  0.323017  1
  O  O28  1  0.666459  0.083541  0.957945  1
  O  O29  1  0.577716  0.499251  0.819945  1
  O  O30  1  0.537300  0.212700  0.452479  1
  O  O31  1  0.466706  0.780461  0.545642  1
  O  O32  1  0.418701  0.529172  0.179107  1
  O  O33  1  0.333446  0.916813  0.046643  1
  O  O34  1  0.722328  0.230670  0.671378  1
  O  O35  1  0.565793  0.184207  0.123873  1
  O  O36  1  0.489303  0.958041  0.322455  1
  O  O37  1  0.793964  0.671954  0.829597  1
  O  O38  1  0.927237  0.318265  0.875119  1
  O  O39  1  0.691803  0.555980  0.378888  1
  O  O40  1  0.791959  0.260697  0.322455  1
  O  O41  1  0.813063  0.936937  0.615274  1
  O  O42  1  0.722060  0.830024  0.182291  1
  O  O43  1  0.969539  0.283294  0.545642  1
  O  O44  1  0.919976  0.027940  0.182291  1
  O  O45  1  0.833187  0.416554  0.046643  1
  O  O46  1  0.988651  0.459433  0.323017  1
