# generated using pymatgen
data_TaWO7
_symmetry_space_group_name_H-M   'P 1'
_cell_length_a   7.15025387
_cell_length_b   7.15025387
_cell_length_c   7.15025387
_cell_angle_alpha   90.00000000
_cell_angle_beta   60.00000000
_cell_angle_gamma   120.00000000
_symmetry_Int_Tables_number   1
_chemical_formula_structural   TaWO7
_chemical_formula_sum   'Ta2 W2 O14'
_cell_volume   258.49335758
_cell_formula_units_Z   2
loop_
 _symmetry_equiv_pos_site_id
 _symmetry_equiv_pos_as_xyz
  1  'x, y, z'
loop_
 _atom_site_type_symbol
 _atom_site_label
 _atom_site_symmetry_multiplicity
 _atom_site_fract_x
 _atom_site_fract_y
 _atom_site_fract_z
 _atom_site_occupancy
  Ta  Ta0  1  0.500000  0.000000  0.500000  1
  Ta  Ta1  1  0.500000  0.500000  0.500000  1
  W  W2  1  0.000000  0.500000  0.000000  1
  W  W3  1  0.000000  0.500000  0.500000  1
  O  O4  1  0.620000  0.810000  0.440000  1
  O  O5  1  0.880000  0.440000  0.810000  1
  O  O6  1  0.250000  0.810000  0.810000  1
  O  O7  1  0.250000  0.440000  0.440000  1
  O  O8  1  0.250000  0.440000  0.810000  1
  O  O9  1  0.250000  0.810000  0.440000  1
  O  O10  1  0.380000  0.190000  0.560000  1
  O  O11  1  0.120000  0.560000  0.190000  1
  O  O12  1  0.750000  0.190000  0.190000  1
  O  O13  1  0.750000  0.560000  0.560000  1
  O  O14  1  0.750000  0.560000  0.190000  1
  O  O15  1  0.750000  0.190000  0.560000  1
  O  O16  1  0.250000  0.125000  0.125000  1
  O  O17  1  0.750000  0.875000  0.875000  1
