# generated using pymatgen
data_NaCoPCO7
_symmetry_space_group_name_H-M   'P 1'
_cell_length_a   8.85040750
_cell_length_b   5.14550691
_cell_length_c   6.07682200
_cell_angle_alpha   90.00000000
_cell_angle_beta   90.00000000
_cell_angle_gamma   87.65860160
_symmetry_Int_Tables_number   1
_chemical_formula_structural   NaCoPCO7
_chemical_formula_sum   'Na2 Co2 P2 C2 O14'
_cell_volume   276.50642104
_cell_formula_units_Z   2
loop_
 _symmetry_equiv_pos_site_id
 _symmetry_equiv_pos_as_xyz
  1  'x, y, z'
loop_
 _atom_site_type_symbol
 _atom_site_label
 _atom_site_symmetry_multiplicity
 _atom_site_fract_x
 _atom_site_fract_y
 _atom_site_fract_z
 _atom_site_occupancy
  Na  Na0  1  0.251189  0.243260  0.461252  1
  Na  Na1  1  0.748811  0.756740  0.961252  1
  Co  Co2  1  0.335434  0.783863  0.760152  1
  Co  Co3  1  0.664566  0.216137  0.260152  1
  P  P4  1  0.432522  0.718688  0.255362  1
  P  P5  1  0.567478  0.281312  0.755362  1
  C  C6  1  0.073691  0.715084  0.742923  1
  C  C7  1  0.926309  0.284916  0.242923  1
  O  O8  1  0.062254  0.329533  0.234707  1
  O  O9  1  0.132891  0.943868  0.752860  1
  O  O10  1  0.183934  0.533058  0.743869  1
  O  O11  1  0.320346  0.779332  0.062330  1
  O  O12  1  0.324087  0.795498  0.449858  1
  O  O13  1  0.424181  0.126664  0.747048  1
  O  O14  1  0.473217  0.422861  0.267652  1
  O  O15  1  0.526783  0.577139  0.767652  1
  O  O16  1  0.575819  0.873336  0.247048  1
  O  O17  1  0.675913  0.204502  0.949858  1
  O  O18  1  0.679654  0.220668  0.562330  1
  O  O19  1  0.816066  0.466942  0.243869  1
  O  O20  1  0.867109  0.056132  0.252860  1
  O  O21  1  0.937746  0.670467  0.734707  1
