# generated using pymatgen
data_Fe(GeO3)2
_symmetry_space_group_name_H-M   'P 1'
_cell_length_a   5.97674372
_cell_length_b   7.22037799
_cell_length_c   7.22037952
_cell_angle_alpha   83.80987829
_cell_angle_beta   77.03143938
_cell_angle_gamma   77.03144457
_symmetry_Int_Tables_number   1
_chemical_formula_structural   Fe(GeO3)2
_chemical_formula_sum   'Fe2 Ge4 O12'
_cell_volume   295.35597062
_cell_formula_units_Z   2
loop_
 _symmetry_equiv_pos_site_id
 _symmetry_equiv_pos_as_xyz
  1  'x, y, z'
loop_
 _atom_site_type_symbol
 _atom_site_label
 _atom_site_symmetry_multiplicity
 _atom_site_fract_x
 _atom_site_fract_y
 _atom_site_fract_z
 _atom_site_occupancy
  Fe  Fe0  1  0.750000  0.903998  0.096002  1
  Fe  Fe1  1  0.250000  0.096002  0.903998  1
  Ge  Ge2  1  0.772725  0.385554  0.205479  1
  Ge  Ge3  1  0.727275  0.794521  0.614446  1
  Ge  Ge4  1  0.227275  0.614446  0.794521  1
  Ge  Ge5  1  0.272725  0.205479  0.385554  1
  O  O6  1  0.508312  0.339878  0.389848  1
  O  O7  1  0.991688  0.610152  0.660122  1
  O  O8  1  0.491688  0.660122  0.610152  1
  O  O9  1  0.008312  0.389848  0.339878  1
  O  O10  1  0.203916  0.084794  0.631063  1
  O  O11  1  0.296084  0.368938  0.915206  1
  O  O12  1  0.796084  0.915206  0.368938  1
  O  O13  1  0.703916  0.631063  0.084794  1
  O  O14  1  0.878792  0.180587  0.033511  1
  O  O15  1  0.621208  0.966489  0.819413  1
  O  O16  1  0.121208  0.819413  0.966489  1
  O  O17  1  0.378792  0.033511  0.180587  1
