# generated using pymatgen
data_Na8Fe6P6(O8F3)3
_symmetry_space_group_name_H-M   'P 1'
_cell_length_a   7.48825017
_cell_length_b   12.24972415
_cell_length_c   9.69442407
_cell_angle_alpha   66.69038099
_cell_angle_beta   90.00000000
_cell_angle_gamma   99.03978621
_symmetry_Int_Tables_number   1
_chemical_formula_structural   Na8Fe6P6(O8F3)3
_chemical_formula_sum   'Na8 Fe6 P6 O24 F9'
_cell_volume   804.63762921
_cell_formula_units_Z   1
loop_
 _symmetry_equiv_pos_site_id
 _symmetry_equiv_pos_as_xyz
  1  'x, y, z'
loop_
 _atom_site_type_symbol
 _atom_site_label
 _atom_site_symmetry_multiplicity
 _atom_site_fract_x
 _atom_site_fract_y
 _atom_site_fract_z
 _atom_site_occupancy
  Na  Na0  1  0.186133  0.813867  0.093067  1
  Na  Na1  1  0.852800  0.147200  0.426400  1
  Na  Na2  1  0.147200  0.852800  0.573600  1
  Na  Na3  1  0.813867  0.186133  0.906933  1
  Na  Na4  1  0.666667  0.333333  0.612533  1
  Na  Na5  1  0.333333  0.666667  0.945867  1
  Na  Na6  1  0.666667  0.333333  0.054133  1
  Na  Na7  1  0.333333  0.666667  0.387467  1
  Fe  Fe8  1  0.582440  0.791220  0.604390  1
  Fe  Fe9  1  0.249107  0.124553  0.937723  1
  Fe  Fe10  1  0.915773  0.457887  0.271057  1
  Fe  Fe11  1  0.750893  0.875447  0.062277  1
  Fe  Fe12  1  0.417560  0.208780  0.395610  1
  Fe  Fe13  1  0.084227  0.542113  0.728943  1
  P  P14  1  0.833333  0.666667  0.416667  1
  P  P15  1  0.500000  0.000000  0.750000  1
  P  P16  1  0.166667  0.333333  0.083333  1
  P  P17  1  0.500000  0.000000  0.250000  1
  P  P18  1  0.166667  0.333333  0.583333  1
  P  P19  1  0.833333  0.666667  0.916667  1
  O  O20  1  0.884267  0.788133  0.259933  1
  O  O21  1  0.550933  0.121467  0.593267  1
  O  O22  1  0.217600  0.454800  0.926600  1
  O  O23  1  0.012267  0.660133  0.515933  1
  O  O24  1  0.678933  0.993467  0.849267  1
  O  O25  1  0.345600  0.326800  0.182600  1
  O  O26  1  0.678933  0.993467  0.157267  1
  O  O27  1  0.345600  0.326800  0.490600  1
  O  O28  1  0.012267  0.660133  0.823933  1
  O  O29  1  0.550933  0.121467  0.285267  1
  O  O30  1  0.217600  0.454800  0.618600  1
  O  O31  1  0.884267  0.788133  0.951933  1
  O  O32  1  0.449067  0.878533  0.406733  1
  O  O33  1  0.115733  0.211867  0.740067  1
  O  O34  1  0.782400  0.545200  0.073400  1
  O  O35  1  0.321067  0.006533  0.150733  1
  O  O36  1  0.987733  0.339867  0.484067  1
  O  O37  1  0.654400  0.673200  0.817400  1
  O  O38  1  0.654400  0.673200  0.509400  1
  O  O39  1  0.321067  0.006533  0.842733  1
  O  O40  1  0.987733  0.339867  0.176067  1
  O  O41  1  0.782400  0.545200  0.381400  1
  O  O42  1  0.449067  0.878533  0.714733  1
  O  O43  1  0.115733  0.211867  0.048067  1
  F  F44  1  0.333333  0.666667  0.666667  1
  F  F45  1  0.000000  0.000000  0.000000  1
  F  F46  1  0.666667  0.333333  0.333333  1
  F  F47  1  0.823067  0.911533  0.544233  1
  F  F48  1  0.489733  0.244867  0.877567  1
  F  F49  1  0.156400  0.578200  0.210900  1
  F  F50  1  0.510267  0.755133  0.122433  1
  F  F51  1  0.176933  0.088467  0.455767  1
  F  F52  1  0.843600  0.421800  0.789100  1
