# generated using pymatgen
data_Na2(CrSe2)3
_symmetry_space_group_name_H-M   'P 1'
_cell_length_a   5.83271220
_cell_length_b   5.83271300
_cell_length_c   7.14951374
_cell_angle_alpha   82.18528908
_cell_angle_beta   97.81470769
_cell_angle_gamma   60.00000115
_symmetry_Int_Tables_number   1
_chemical_formula_structural   Na2(CrSe2)3
_chemical_formula_sum   'Na2 Cr3 Se6'
_cell_volume   202.70535284
_cell_formula_units_Z   1
loop_
 _symmetry_equiv_pos_site_id
 _symmetry_equiv_pos_as_xyz
  1  'x, y, z'
loop_
 _atom_site_type_symbol
 _atom_site_label
 _atom_site_symmetry_multiplicity
 _atom_site_fract_x
 _atom_site_fract_y
 _atom_site_fract_z
 _atom_site_occupancy
  Na  Na0  1  0.500000  0.500000  0.500000  1
  Na  Na1  1  0.833333  0.833333  0.500000  1
  Cr  Cr2  1  0.666667  0.666667  0.000000  1
  Cr  Cr3  1  0.333333  0.333333  0.000000  1
  Cr  Cr4  1  0.000000  0.000000  0.000000  1
  Se  Se5  1  0.734000  0.266000  0.202000  1
  Se  Se6  1  0.400667  0.932667  0.202000  1
  Se  Se7  1  0.067333  0.599333  0.202000  1
  Se  Se8  1  0.932667  0.400667  0.798000  1
  Se  Se9  1  0.599333  0.067333  0.798000  1
  Se  Se10  1  0.266000  0.734000  0.798000  1
