# generated using pymatgen
data_Mo2P2O9
_symmetry_space_group_name_H-M   'P 1'
_cell_length_a   6.54396039
_cell_length_b   7.97567505
_cell_length_c   14.50135632
_cell_angle_alpha   90.01536083
_cell_angle_beta   89.99984373
_cell_angle_gamma   90.00009735
_symmetry_Int_Tables_number   1
_chemical_formula_structural   Mo2P2O9
_chemical_formula_sum   'Mo8 P8 O36'
_cell_volume   756.86203652
_cell_formula_units_Z   4
loop_
 _symmetry_equiv_pos_site_id
 _symmetry_equiv_pos_as_xyz
  1  'x, y, z'
loop_
 _atom_site_type_symbol
 _atom_site_label
 _atom_site_symmetry_multiplicity
 _atom_site_fract_x
 _atom_site_fract_y
 _atom_site_fract_z
 _atom_site_occupancy
  Mo  Mo0  1  0.750003  0.356033  0.872624  1
  Mo  Mo1  1  0.249999  0.643989  0.127390  1
  Mo  Mo2  1  0.249995  0.856118  0.627365  1
  Mo  Mo3  1  0.750004  0.143875  0.372622  1
  Mo  Mo4  1  0.499997  0.000000  1.000000  1
  Mo  Mo5  1  0.500004  0.499991  0.499999  1
  Mo  Mo6  1  0.999995  0.499991  0.499998  1
  Mo  Mo7  1  0.000002  0.999999  0.999999  1
  P  P8  1  0.250002  0.356020  0.937931  1
  P  P9  1  0.749999  0.644017  0.062106  1
  P  P10  1  0.749997  0.856082  0.562061  1
  P  P11  1  0.250002  0.143943  0.437881  1
  P  P12  1  0.750001  0.399552  0.689539  1
  P  P13  1  0.750003  0.100503  0.189573  1
  P  P14  1  0.249999  0.899483  0.810459  1
  P  P15  1  0.250002  0.600449  0.310429  1
  O  O16  1  0.057842  0.597882  0.373287  1
  O  O17  1  0.557866  0.402127  0.626731  1
  O  O18  1  0.942161  0.098001  0.126709  1
  O  O19  1  0.442134  0.901984  0.873278  1
  O  O20  1  0.942134  0.402124  0.626729  1
  O  O21  1  0.442161  0.597879  0.373287  1
  O  O22  1  0.057863  0.901986  0.873277  1
  O  O23  1  0.557843  0.098006  0.126708  1
  O  O24  1  0.249999  0.327485  0.482657  1
  O  O25  1  0.750000  0.672503  0.517344  1
  O  O26  1  0.749999  0.827510  0.017321  1
  O  O27  1  0.249999  0.172496  0.982666  1
  O  O28  1  0.750001  0.131201  0.952809  1
  O  O29  1  0.250000  0.868815  0.047186  1
  O  O30  1  0.249999  0.631244  0.547169  1
  O  O31  1  0.750001  0.368748  0.452838  1
  O  O32  1  0.749998  0.235229  0.750538  1
  O  O33  1  0.250005  0.764778  0.249475  1
  O  O34  1  0.249995  0.735219  0.749373  1
  O  O35  1  0.750007  0.264763  0.250617  1
  O  O36  1  0.441293  0.133087  0.377963  1
  O  O37  1  0.941324  0.866910  0.622043  1
  O  O38  1  0.558702  0.633261  0.122038  1
  O  O39  1  0.058679  0.366769  0.877957  1
  O  O40  1  0.558666  0.866906  0.622039  1
  O  O41  1  0.058715  0.133083  0.377960  1
  O  O42  1  0.441327  0.366766  0.877960  1
  O  O43  1  0.941296  0.633261  0.122040  1
  O  O44  1  0.750002  0.511408  0.986930  1
  O  O45  1  0.250001  0.037011  0.735500  1
  O  O46  1  0.249999  0.463026  0.235422  1
  O  O47  1  0.750004  0.537011  0.764591  1
  O  O48  1  0.750001  0.988499  0.486927  1
  O  O49  1  0.249998  0.011430  0.513093  1
  O  O50  1  0.250000  0.488550  0.013066  1
  O  O51  1  0.750000  0.962996  0.264489  1
