# generated using pymatgen
data_Fe5O8
_symmetry_space_group_name_H-M   'P 1'
_cell_length_a   5.42031430
_cell_length_b   5.42031430
_cell_length_c   5.42031430
_cell_angle_alpha   90.00000000
_cell_angle_beta   60.00000000
_cell_angle_gamma   120.00000000
_symmetry_Int_Tables_number   1
_chemical_formula_structural   Fe5O8
_chemical_formula_sum   'Fe5 O8'
_cell_volume   112.60519142
_cell_formula_units_Z   1
loop_
 _symmetry_equiv_pos_site_id
 _symmetry_equiv_pos_as_xyz
  1  'x, y, z'
loop_
 _atom_site_type_symbol
 _atom_site_label
 _atom_site_symmetry_multiplicity
 _atom_site_fract_x
 _atom_site_fract_y
 _atom_site_fract_z
 _atom_site_occupancy
  Fe  Fe0  1  0.250000  0.125000  0.125000  1
  Fe  Fe1  1  0.750000  0.875000  0.875000  1
  Fe  Fe2  1  0.500000  0.500000  0.500000  1
  Fe  Fe3  1  0.000000  0.500000  0.000000  1
  Fe  Fe4  1  0.000000  0.500000  0.500000  1
  O  O5  1  0.988000  0.732000  0.256000  1
  O  O6  1  0.988000  0.256000  0.256000  1
  O  O7  1  0.512000  0.256000  0.732000  1
  O  O8  1  0.512000  0.256000  0.256000  1
  O  O9  1  0.012000  0.268000  0.744000  1
  O  O10  1  0.012000  0.744000  0.744000  1
  O  O11  1  0.488000  0.744000  0.268000  1
  O  O12  1  0.488000  0.744000  0.744000  1
