# generated using pymatgen
data_VO2
_symmetry_space_group_name_H-M   'P 1'
_cell_length_a   2.52516500
_cell_length_b   7.96734700
_cell_length_c   9.34757200
_cell_angle_alpha   90.00000000
_cell_angle_beta   90.00000000
_cell_angle_gamma   90.00000000
_symmetry_Int_Tables_number   1
_chemical_formula_structural   VO2
_chemical_formula_sum   'V8 O16'
_cell_volume   188.06254650
_cell_formula_units_Z   8
loop_
 _symmetry_equiv_pos_site_id
 _symmetry_equiv_pos_as_xyz
  1  'x, y, z'
loop_
 _atom_site_type_symbol
 _atom_site_label
 _atom_site_symmetry_multiplicity
 _atom_site_fract_x
 _atom_site_fract_y
 _atom_site_fract_z
 _atom_site_occupancy
  V  V0  1  0.750000  0.559250  0.385620  1
  V  V1  1  0.250000  0.440750  0.614380  1
  V  V2  1  0.250000  0.940750  0.885620  1
  V  V3  1  0.750000  0.059250  0.114380  1
  V  V4  1  0.250000  0.914250  0.398430  1
  V  V5  1  0.750000  0.085750  0.601570  1
  V  V6  1  0.750000  0.585750  0.898430  1
  V  V7  1  0.250000  0.414250  0.101570  1
  O  O8  1  0.250000  0.705900  0.343900  1
  O  O9  1  0.750000  0.294100  0.656100  1
  O  O10  1  0.750000  0.794100  0.843900  1
  O  O11  1  0.250000  0.205900  0.156100  1
  O  O12  1  0.250000  0.616500  0.024400  1
  O  O13  1  0.750000  0.383500  0.975600  1
  O  O14  1  0.750000  0.883500  0.524400  1
  O  O15  1  0.250000  0.116500  0.475600  1
  O  O16  1  0.750000  0.974200  0.282900  1
  O  O17  1  0.250000  0.025800  0.717100  1
  O  O18  1  0.250000  0.525800  0.782900  1
  O  O19  1  0.750000  0.474200  0.217100  1
  O  O20  1  0.250000  0.916800  0.071100  1
  O  O21  1  0.750000  0.083200  0.928900  1
  O  O22  1  0.750000  0.583200  0.571100  1
  O  O23  1  0.250000  0.416800  0.428900  1
