# generated using pymatgen
data_Mn(SiO3)2
_symmetry_space_group_name_H-M   'P 1'
_cell_length_a   5.32821705
_cell_length_b   6.39623212
_cell_length_c   6.39623159
_cell_angle_alpha   84.10264161
_cell_angle_beta   75.28956594
_cell_angle_gamma   75.28956435
_symmetry_Int_Tables_number   1
_chemical_formula_structural   Mn(SiO3)2
_chemical_formula_sum   'Mn2 Si4 O12'
_cell_volume   203.75985751
_cell_formula_units_Z   2
loop_
 _symmetry_equiv_pos_site_id
 _symmetry_equiv_pos_as_xyz
  1  'x, y, z'
loop_
 _atom_site_type_symbol
 _atom_site_label
 _atom_site_symmetry_multiplicity
 _atom_site_fract_x
 _atom_site_fract_y
 _atom_site_fract_z
 _atom_site_occupancy
  Mn  Mn0  1  0.250002  0.093714  0.906291  1
  Mn  Mn1  1  0.750002  0.906292  0.093713  1
  Si  Si2  1  0.255246  0.212806  0.390950  1
  Si  Si3  1  0.244754  0.609047  0.787193  1
  Si  Si4  1  0.755246  0.390950  0.212806  1
  Si  Si5  1  0.744755  0.787193  0.609047  1
  O  O6  1  0.475489  0.353357  0.364013  1
  O  O7  1  0.024513  0.635989  0.646640  1
  O  O8  1  0.524514  0.646640  0.635990  1
  O  O9  1  0.975488  0.364014  0.353356  1
  O  O10  1  0.205047  0.094168  0.628973  1
  O  O11  1  0.294949  0.371027  0.905835  1
  O  O12  1  0.794949  0.905836  0.371028  1
  O  O13  1  0.705046  0.628973  0.094169  1
  O  O14  1  0.865951  0.190908  0.035952  1
  O  O15  1  0.634047  0.964044  0.809092  1
  O  O16  1  0.365950  0.035952  0.190909  1
  O  O17  1  0.134048  0.809093  0.964044  1
