# generated using pymatgen
data_Mn(GeO3)2
_symmetry_space_group_name_H-M   'P 1'
_cell_length_a   5.97739406
_cell_length_b   7.17106363
_cell_length_c   7.17106410
_cell_angle_alpha   83.64245494
_cell_angle_beta   76.27465447
_cell_angle_gamma   76.27464831
_symmetry_Int_Tables_number   1
_chemical_formula_structural   Mn(GeO3)2
_chemical_formula_sum   'Mn2 Ge4 O12'
_cell_volume   289.59501422
_cell_formula_units_Z   2
loop_
 _symmetry_equiv_pos_site_id
 _symmetry_equiv_pos_as_xyz
  1  'x, y, z'
loop_
 _atom_site_type_symbol
 _atom_site_label
 _atom_site_symmetry_multiplicity
 _atom_site_fract_x
 _atom_site_fract_y
 _atom_site_fract_z
 _atom_site_occupancy
  Mn  Mn0  1  0.750000  0.909317  0.090683  1
  Mn  Mn1  1  0.250000  0.090683  0.909317  1
  Ge  Ge2  1  0.770854  0.392226  0.205808  1
  Ge  Ge3  1  0.729146  0.794192  0.607774  1
  Ge  Ge4  1  0.229146  0.607774  0.794192  1
  Ge  Ge5  1  0.270854  0.205808  0.392226  1
  O  O6  1  0.507560  0.339799  0.393023  1
  O  O7  1  0.992440  0.606977  0.660201  1
  O  O8  1  0.492440  0.660201  0.606977  1
  O  O9  1  0.007560  0.393023  0.339799  1
  O  O10  1  0.197501  0.081850  0.641158  1
  O  O11  1  0.302499  0.358843  0.918150  1
  O  O12  1  0.802499  0.918150  0.358843  1
  O  O13  1  0.697501  0.641158  0.081850  1
  O  O14  1  0.877399  0.183514  0.026495  1
  O  O15  1  0.622601  0.973505  0.816486  1
  O  O16  1  0.122601  0.816486  0.973505  1
  O  O17  1  0.377399  0.026495  0.183514  1
