# generated using pymatgen
data_NiO2
_symmetry_space_group_name_H-M   'P 1'
_cell_length_a   2.92678279
_cell_length_b   2.92738708
_cell_length_c   10.76869568
_cell_angle_alpha   89.80997796
_cell_angle_beta   90.09508468
_cell_angle_gamma   120.00305145
_symmetry_Int_Tables_number   1
_chemical_formula_structural   NiO2
_chemical_formula_sum   'Ni2 O4'
_cell_volume   79.90034175
_cell_formula_units_Z   2
loop_
 _symmetry_equiv_pos_site_id
 _symmetry_equiv_pos_as_xyz
  1  'x, y, z'
loop_
 _atom_site_type_symbol
 _atom_site_label
 _atom_site_symmetry_multiplicity
 _atom_site_fract_x
 _atom_site_fract_y
 _atom_site_fract_z
 _atom_site_occupancy
  Ni  Ni0  1  0.997798  0.999716  0.501785  1
  Ni  Ni1  1  0.997748  0.999759  0.002359  1
  O  O2  1  0.664538  0.334221  0.409393  1
  O  O3  1  0.664494  0.331961  0.094735  1
  O  O4  1  0.331079  0.665234  0.594191  1
  O  O5  1  0.331017  0.667549  0.909995  1
