# generated using pymatgen
data_WO3
_symmetry_space_group_name_H-M   'P 1'
_cell_length_a   3.99396954
_cell_length_b   5.36681804
_cell_length_c   5.36681804
_cell_angle_alpha   90.00000000
_cell_angle_beta   90.00000000
_cell_angle_gamma   90.00000000
_symmetry_Int_Tables_number   1
_chemical_formula_structural   WO3
_chemical_formula_sum   'W2 O6'
_cell_volume   115.03724975
_cell_formula_units_Z   2
loop_
 _symmetry_equiv_pos_site_id
 _symmetry_equiv_pos_as_xyz
  1  'x, y, z'
loop_
 _atom_site_type_symbol
 _atom_site_label
 _atom_site_symmetry_multiplicity
 _atom_site_fract_x
 _atom_site_fract_y
 _atom_site_fract_z
 _atom_site_occupancy
  W  W0  1  0.935002  0.250000  0.250000  1
  W  W1  1  0.065007  0.750000  0.750000  1
  O  O2  1  0.491615  0.250000  0.250000  1
  O  O3  1  0.508374  0.750000  0.750000  1
  O  O4  1  0.000001  1.000000  0.500000  1
  O  O5  1  0.000001  1.000000  1.000000  1
  O  O6  1  0.000001  0.500000  1.000000  1
  O  O7  1  0.000001  0.500000  0.500000  1
