# generated using pymatgen
data_Ti3P3O13
_symmetry_space_group_name_H-M   'P 1'
_cell_length_a   7.05381700
_cell_length_b   8.44582092
_cell_length_c   11.57182201
_cell_angle_alpha   98.88403118
_cell_angle_beta   90.00000000
_cell_angle_gamma   90.00000000
_symmetry_Int_Tables_number   1
_chemical_formula_structural   Ti3P3O13
_chemical_formula_sum   'Ti6 P6 O26'
_cell_volume   681.12377848
_cell_formula_units_Z   2
loop_
 _symmetry_equiv_pos_site_id
 _symmetry_equiv_pos_as_xyz
  1  'x, y, z'
loop_
 _atom_site_type_symbol
 _atom_site_label
 _atom_site_symmetry_multiplicity
 _atom_site_fract_x
 _atom_site_fract_y
 _atom_site_fract_z
 _atom_site_occupancy
  Ti  Ti0  1  0.250000  0.357265  0.190573  1
  Ti  Ti1  1  0.750000  0.642735  0.809427  1
  Ti  Ti2  1  0.250000  0.790408  0.439384  1
  Ti  Ti3  1  0.500000  0.000000  0.000000  1
  Ti  Ti4  1  0.750000  0.209592  0.560616  1
  Ti  Ti5  1  0.000000  0.000000  0.000000  1
  P  P6  1  0.250000  0.223320  0.481208  1
  P  P7  1  0.750000  0.776680  0.518792  1
  P  P8  1  0.250000  0.741696  0.763893  1
  P  P9  1  0.750000  0.258304  0.236107  1
  P  P10  1  0.750000  0.307702  0.882819  1
  P  P11  1  0.250000  0.692298  0.117181  1
  O  O12  1  0.750000  0.340602  0.737877  1
  O  O13  1  0.551774  0.748612  0.434291  1
  O  O14  1  0.250000  0.794632  0.626240  1
  O  O15  1  0.553638  0.204112  0.912353  1
  O  O16  1  0.750000  0.652252  0.619805  1
  O  O17  1  0.750000  0.868171  0.899681  1
  O  O18  1  0.250000  0.347748  0.380195  1
  O  O19  1  0.053638  0.795888  0.087647  1
  O  O20  1  0.250000  0.023071  0.411587  1
  O  O21  1  0.750000  0.976929  0.588413  1
  O  O22  1  0.054089  0.635731  0.787375  1
  O  O23  1  0.250000  0.131829  0.100319  1
  O  O24  1  0.554089  0.364269  0.212625  1
  O  O25  1  0.750000  0.503415  0.951469  1
  O  O26  1  0.750000  0.205368  0.373760  1
  O  O27  1  0.446362  0.795888  0.087647  1
  O  O28  1  0.948226  0.748612  0.434291  1
  O  O29  1  0.448226  0.251388  0.565709  1
  O  O30  1  0.445911  0.635731  0.787375  1
  O  O31  1  0.250000  0.659398  0.262123  1
  O  O32  1  0.750000  0.084139  0.130835  1
  O  O33  1  0.250000  0.915861  0.869165  1
  O  O34  1  0.945911  0.364269  0.212625  1
  O  O35  1  0.946362  0.204112  0.912353  1
  O  O36  1  0.051774  0.251388  0.565709  1
  O  O37  1  0.250000  0.496585  0.048531  1
