# generated using pymatgen
data_Cu3O4
_symmetry_space_group_name_H-M   'P 1'
_cell_length_a   6.06139384
_cell_length_b   6.06139340
_cell_length_c   6.06139400
_cell_angle_alpha   59.99999673
_cell_angle_beta   59.99999912
_cell_angle_gamma   60.00000332
_symmetry_Int_Tables_number   1
_chemical_formula_structural   Cu3O4
_chemical_formula_sum   'Cu6 O8'
_cell_volume   157.47169027
_cell_formula_units_Z   2
loop_
 _symmetry_equiv_pos_site_id
 _symmetry_equiv_pos_as_xyz
  1  'x, y, z'
loop_
 _atom_site_type_symbol
 _atom_site_label
 _atom_site_symmetry_multiplicity
 _atom_site_fract_x
 _atom_site_fract_y
 _atom_site_fract_z
 _atom_site_occupancy
  Cu  Cu0  1  0.500000  0.000000  0.500000  1
  Cu  Cu1  1  0.500000  0.500000  0.000000  1
  Cu  Cu2  1  0.000000  0.500000  0.500000  1
  Cu  Cu3  1  0.000000  0.500000  0.000000  1
  Cu  Cu4  1  0.000000  0.000000  0.500000  1
  Cu  Cu5  1  0.500000  0.000000  0.000000  1
  O  O6  1  0.144239  0.144239  0.144239  1
  O  O7  1  0.855761  0.432717  0.855761  1
  O  O8  1  0.144239  0.567283  0.144239  1
  O  O9  1  0.432717  0.855761  0.855761  1
  O  O10  1  0.144239  0.144239  0.567283  1
  O  O11  1  0.567283  0.144239  0.144239  1
  O  O12  1  0.855761  0.855761  0.432717  1
  O  O13  1  0.855761  0.855761  0.855761  1
