# generated using pymatgen
data_MnF3
_symmetry_space_group_name_H-M   'P 1'
_cell_length_a   5.46126100
_cell_length_b   5.71827400
_cell_length_c   7.73456600
_cell_angle_alpha   90.00000000
_cell_angle_beta   90.00000000
_cell_angle_gamma   90.00000000
_symmetry_Int_Tables_number   1
_chemical_formula_structural   MnF3
_chemical_formula_sum   'Mn4 F12'
_cell_volume   241.54265939
_cell_formula_units_Z   4
loop_
 _symmetry_equiv_pos_site_id
 _symmetry_equiv_pos_as_xyz
  1  'x, y, z'
loop_
 _atom_site_type_symbol
 _atom_site_label
 _atom_site_symmetry_multiplicity
 _atom_site_fract_x
 _atom_site_fract_y
 _atom_site_fract_z
 _atom_site_occupancy
  Mn  Mn0  1  0.000000  0.500000  0.000000  1
  Mn  Mn1  1  0.000000  0.500000  0.500000  1
  Mn  Mn2  1  0.500000  0.000000  0.000000  1
  Mn  Mn3  1  0.500000  0.000000  0.500000  1
  F  F4  1  0.085723  0.513038  0.250000  1
  F  F5  1  0.221725  0.805572  0.960425  1
  F  F6  1  0.221725  0.805572  0.539575  1
  F  F7  1  0.278275  0.305572  0.960425  1
  F  F8  1  0.278275  0.305572  0.539575  1
  F  F9  1  0.414277  0.013038  0.250000  1
  F  F10  1  0.585723  0.986962  0.750000  1
  F  F11  1  0.721725  0.694428  0.039575  1
  F  F12  1  0.721725  0.694428  0.460425  1
  F  F13  1  0.778275  0.194428  0.039575  1
  F  F14  1  0.778275  0.194428  0.460425  1
  F  F15  1  0.914277  0.486962  0.750000  1
