# generated using pymatgen
data_V3P3O13
_symmetry_space_group_name_H-M   'P 1'
_cell_length_a   6.91154100
_cell_length_b   8.23126537
_cell_length_c   11.18745765
_cell_angle_alpha   99.38314206
_cell_angle_beta   90.00000000
_cell_angle_gamma   90.00000000
_symmetry_Int_Tables_number   1
_chemical_formula_structural   V3P3O13
_chemical_formula_sum   'V6 P6 O26'
_cell_volume   627.94685187
_cell_formula_units_Z   2
loop_
 _symmetry_equiv_pos_site_id
 _symmetry_equiv_pos_as_xyz
  1  'x, y, z'
loop_
 _atom_site_type_symbol
 _atom_site_label
 _atom_site_symmetry_multiplicity
 _atom_site_fract_x
 _atom_site_fract_y
 _atom_site_fract_z
 _atom_site_occupancy
  V  V0  1  0.250000  0.358141  0.191815  1
  V  V1  1  0.750000  0.641859  0.808185  1
  V  V2  1  0.250000  0.791970  0.443170  1
  V  V3  1  0.500000  0.000000  0.000000  1
  V  V4  1  0.750000  0.208030  0.556830  1
  V  V5  1  0.000000  0.000000  0.000000  1
  P  P6  1  0.250000  0.220906  0.480686  1
  P  P7  1  0.750000  0.779094  0.519314  1
  P  P8  1  0.250000  0.740891  0.766277  1
  P  P9  1  0.750000  0.259109  0.233723  1
  P  P10  1  0.750000  0.304954  0.879997  1
  P  P11  1  0.250000  0.695046  0.120003  1
  O  O12  1  0.750000  0.338917  0.732805  1
  O  O13  1  0.551825  0.748502  0.434872  1
  O  O14  1  0.250000  0.792479  0.623980  1
  O  O15  1  0.550803  0.207693  0.909473  1
  O  O16  1  0.750000  0.655598  0.621845  1
  O  O17  1  0.750000  0.867872  0.903212  1
  O  O18  1  0.250000  0.344402  0.378155  1
  O  O19  1  0.050803  0.792307  0.090527  1
  O  O20  1  0.250000  0.018908  0.408413  1
  O  O21  1  0.750000  0.981092  0.591587  1
  O  O22  1  0.054935  0.632475  0.785056  1
  O  O23  1  0.250000  0.132128  0.096788  1
  O  O24  1  0.554935  0.367525  0.214944  1
  O  O25  1  0.750000  0.506697  0.946937  1
  O  O26  1  0.750000  0.207521  0.376020  1
  O  O27  1  0.449197  0.792307  0.090527  1
  O  O28  1  0.948175  0.748502  0.434872  1
  O  O29  1  0.448175  0.251498  0.565128  1
  O  O30  1  0.445065  0.632475  0.785056  1
  O  O31  1  0.250000  0.661083  0.267195  1
  O  O32  1  0.750000  0.080931  0.133317  1
  O  O33  1  0.250000  0.919069  0.866683  1
  O  O34  1  0.945065  0.367525  0.214944  1
  O  O35  1  0.949197  0.207693  0.909473  1
  O  O36  1  0.051825  0.251498  0.565128  1
  O  O37  1  0.250000  0.493303  0.053063  1
