# generated using pymatgen
data_NaBiF6
_symmetry_space_group_name_H-M   'P 1'
_cell_length_a   5.95839904
_cell_length_b   5.95839904
_cell_length_c   5.95839904
_cell_angle_alpha   54.62560322
_cell_angle_beta   54.62560322
_cell_angle_gamma   54.62560318
_symmetry_Int_Tables_number   1
_chemical_formula_structural   NaBiF6
_chemical_formula_sum   'Na1 Bi1 F6'
_cell_volume   130.84754854
_cell_formula_units_Z   1
loop_
 _symmetry_equiv_pos_site_id
 _symmetry_equiv_pos_as_xyz
  1  'x, y, z'
loop_
 _atom_site_type_symbol
 _atom_site_label
 _atom_site_symmetry_multiplicity
 _atom_site_fract_x
 _atom_site_fract_y
 _atom_site_fract_z
 _atom_site_occupancy
  F  F0  1  0.185000  0.974000  0.601000  1
  F  F1  1  0.974000  0.601000  0.185000  1
  F  F2  1  0.399000  0.815000  0.026000  1
  F  F3  1  0.026000  0.399000  0.815000  1
  F  F4  1  0.815000  0.026000  0.399000  1
  F  F5  1  0.601000  0.185000  0.974000  1
  Na  Na6  1  0.500000  0.500000  0.500000  1
  Bi  Bi7  1  0.000000  0.000000  0.000000  1
