# generated using pymatgen
data_FeO2
_symmetry_space_group_name_H-M   'P 1'
_cell_length_a   2.82543775
_cell_length_b   2.82543738
_cell_length_c   10.02637970
_cell_angle_alpha   90.00000380
_cell_angle_beta   81.90006419
_cell_angle_gamma   119.99999006
_symmetry_Int_Tables_number   1
_chemical_formula_structural   FeO2
_chemical_formula_sum   'Fe2 O4'
_cell_volume   68.39444401
_cell_formula_units_Z   2
loop_
 _symmetry_equiv_pos_site_id
 _symmetry_equiv_pos_as_xyz
  1  'x, y, z'
loop_
 _atom_site_type_symbol
 _atom_site_label
 _atom_site_symmetry_multiplicity
 _atom_site_fract_x
 _atom_site_fract_y
 _atom_site_fract_z
 _atom_site_occupancy
  Fe  Fe0  1  0.500000  0.750000  0.749999  1
  Fe  Fe1  1  0.499998  0.249999  0.250002  1
  O  O2  1  0.232196  0.616098  0.151706  1
  O  O3  1  0.232062  0.116031  0.651908  1
  O  O4  1  0.767804  0.883902  0.348293  1
  O  O5  1  0.767940  0.383970  0.848091  1
