# generated using pymatgen
data_Cr(SiO3)2
_symmetry_space_group_name_H-M   'P 1'
_cell_length_a   6.48220239
_cell_length_b   8.69992505
_cell_length_c   5.33982678
_cell_angle_alpha   90.00096658
_cell_angle_beta   75.06235164
_cell_angle_gamma   47.83986754
_symmetry_Int_Tables_number   1
_chemical_formula_structural   Cr(SiO3)2
_chemical_formula_sum   'Cr2 Si4 O12'
_cell_volume   209.29268755
_cell_formula_units_Z   2
loop_
 _symmetry_equiv_pos_site_id
 _symmetry_equiv_pos_as_xyz
  1  'x, y, z'
loop_
 _atom_site_type_symbol
 _atom_site_label
 _atom_site_symmetry_multiplicity
 _atom_site_fract_x
 _atom_site_fract_y
 _atom_site_fract_z
 _atom_site_occupancy
  Cr  Cr0  1  0.499136  0.901287  0.246632  1
  Cr  Cr1  1  0.499119  0.099229  0.746103  1
  Si  Si2  1  0.098701  0.786970  0.251036  1
  Si  Si3  1  0.899482  0.213220  0.741229  1
  Si  Si4  1  0.899582  0.386470  0.241445  1
  Si  Si5  1  0.098221  0.613872  0.751200  1
  O  O6  1  0.783693  0.362519  0.531585  1
  O  O7  1  0.217565  0.902913  0.216672  1
  O  O8  1  0.271539  0.186298  0.126468  1
  O  O9  1  0.213446  0.637300  0.460452  1
  O  O10  1  0.781599  0.096591  0.775903  1
  O  O11  1  0.726396  0.814484  0.866562  1
  O  O12  1  0.780580  0.621543  0.276362  1
  O  O13  1  0.726625  0.958768  0.366529  1
  O  O14  1  0.784772  0.352068  0.031667  1
  O  O15  1  0.213783  0.647593  0.960810  1
  O  O16  1  0.271408  0.042324  0.625624  1
  O  O17  1  0.216595  0.379064  0.717187  1
