# generated using pymatgen
data_Cs2SbBr6
_symmetry_space_group_name_H-M   'P 1'
_cell_length_a   13.07135966
_cell_length_b   13.07135966
_cell_length_c   13.07135966
_cell_angle_alpha   132.05713886
_cell_angle_beta   132.05713886
_cell_angle_gamma   70.13879723
_symmetry_Int_Tables_number   1
_chemical_formula_structural   Cs2SbBr6
_chemical_formula_sum   'Cs8 Sb4 Br24'
_cell_volume   1206.89968608
_cell_formula_units_Z   4
loop_
 _symmetry_equiv_pos_site_id
 _symmetry_equiv_pos_as_xyz
  1  'x, y, z'
loop_
 _atom_site_type_symbol
 _atom_site_label
 _atom_site_symmetry_multiplicity
 _atom_site_fract_x
 _atom_site_fract_y
 _atom_site_fract_z
 _atom_site_occupancy
  Cs  Cs0  1  0.500000  0.250234  0.750234  1
  Cs  Cs1  1  0.000000  0.749765  0.749765  1
  Cs  Cs2  1  0.749766  0.500000  0.749766  1
  Cs  Cs3  1  0.250233  0.000000  0.750234  1
  Cs  Cs4  1  0.500000  0.749766  0.249766  1
  Cs  Cs5  1  0.000000  0.250234  0.250234  1
  Cs  Cs6  1  0.250234  0.500000  0.250234  1
  Cs  Cs7  1  0.749767  0.000000  0.249766  1
  Sb  Sb8  1  0.625000  0.375000  0.250000  1
  Sb  Sb9  1  0.375000  0.625000  0.750000  1
  Sb  Sb10  1  0.125000  0.875000  0.249999  1
  Sb  Sb11  1  0.875000  0.125000  0.750000  1
  Br  Br12  1  0.751034  0.001034  0.750000  1
  Br  Br13  1  0.001034  0.751034  0.249999  1
  Br  Br14  1  0.998965  0.248966  0.750000  1
  Br  Br15  1  0.248966  0.998965  0.250000  1
  Br  Br16  1  0.500907  0.250907  0.250000  1
  Br  Br17  1  0.499093  0.749093  0.750000  1
  Br  Br18  1  0.749093  0.499093  0.250000  1
  Br  Br19  1  0.250908  0.500907  0.750000  1
  Br  Br20  1  0.374481  0.875046  0.499435  1
  Br  Br21  1  0.875613  0.875046  0.000567  1
  Br  Br22  1  0.625521  0.124954  0.500566  1
  Br  Br23  1  0.124389  0.124954  0.999434  1
  Br  Br24  1  0.124955  0.625520  0.000567  1
  Br  Br25  1  0.124955  0.124389  0.499435  1
  Br  Br26  1  0.875046  0.374480  0.999433  1
  Br  Br27  1  0.875046  0.875612  0.500566  1
  Br  Br28  1  0.874479  0.374995  0.499484  1
  Br  Br29  1  0.375512  0.374995  0.000517  1
  Br  Br30  1  0.125521  0.625004  0.500516  1
  Br  Br31  1  0.624489  0.625005  0.999483  1
  Br  Br32  1  0.625006  0.125520  0.000517  1
  Br  Br33  1  0.625005  0.624489  0.499484  1
  Br  Br34  1  0.374995  0.874479  0.999483  1
  Br  Br35  1  0.374996  0.375511  0.500516  1
