# generated using pymatgen
data_FePO4
_symmetry_space_group_name_H-M   'P 1'
_cell_length_a   4.98423400
_cell_length_b   6.06909800
_cell_length_c   10.20386300
_cell_angle_alpha   90.00000000
_cell_angle_beta   90.00000000
_cell_angle_gamma   90.00000000
_symmetry_Int_Tables_number   1
_chemical_formula_structural   FePO4
_chemical_formula_sum   'Fe4 P4 O16'
_cell_volume   308.66486192
_cell_formula_units_Z   4
loop_
 _symmetry_equiv_pos_site_id
 _symmetry_equiv_pos_as_xyz
  1  'x, y, z'
loop_
 _atom_site_type_symbol
 _atom_site_label
 _atom_site_symmetry_multiplicity
 _atom_site_fract_x
 _atom_site_fract_y
 _atom_site_fract_z
 _atom_site_occupancy
  Fe  Fe0  1  0.450000  0.750000  0.225000  1
  Fe  Fe1  1  0.050000  0.750000  0.725000  1
  Fe  Fe2  1  0.550000  0.250000  0.775000  1
  Fe  Fe3  1  0.950000  0.250000  0.275000  1
  P  P4  1  0.899000  0.750000  0.407000  1
  P  P5  1  0.601000  0.750000  0.907000  1
  P  P6  1  0.101000  0.250000  0.593000  1
  P  P7  1  0.399000  0.250000  0.093000  1
  O  O8  1  0.211000  0.750000  0.385000  1
  O  O9  1  0.289000  0.750000  0.885000  1
  O  O10  1  0.789000  0.250000  0.615000  1
  O  O11  1  0.711000  0.250000  0.115000  1
  O  O12  1  0.651000  0.750000  0.055000  1
  O  O13  1  0.849000  0.750000  0.555000  1
  O  O14  1  0.349000  0.250000  0.945000  1
  O  O15  1  0.151000  0.250000  0.445000  1
  O  O16  1  0.752000  0.954000  0.335000  1
  O  O17  1  0.748000  0.546000  0.835000  1
  O  O18  1  0.248000  0.454000  0.665000  1
  O  O19  1  0.252000  0.046000  0.165000  1
  O  O20  1  0.248000  0.046000  0.665000  1
  O  O21  1  0.252000  0.454000  0.165000  1
  O  O22  1  0.752000  0.546000  0.335000  1
  O  O23  1  0.748000  0.954000  0.835000  1
