# generated using pymatgen
data_V2O5
_symmetry_space_group_name_H-M   'P 1'
_cell_length_a   3.61967974
_cell_length_b   10.28712929
_cell_length_c   7.98780296
_cell_angle_alpha   108.09236333
_cell_angle_beta   103.09554681
_cell_angle_gamma   90.00038590
_symmetry_Int_Tables_number   1
_chemical_formula_structural   V2O5
_chemical_formula_sum   'V6 O15'
_cell_volume   274.57937201
_cell_formula_units_Z   3
loop_
 _symmetry_equiv_pos_site_id
 _symmetry_equiv_pos_as_xyz
  1  'x, y, z'
loop_
 _atom_site_type_symbol
 _atom_site_label
 _atom_site_symmetry_multiplicity
 _atom_site_fract_x
 _atom_site_fract_y
 _atom_site_fract_z
 _atom_site_occupancy
  V  V0  1  0.114973  0.112546  0.229956  1
  V  V1  1  0.885090  0.887458  0.770165  1
  V  V2  1  0.288478  0.410718  0.576953  1
  V  V3  1  0.711516  0.589259  0.423039  1
  V  V4  1  0.337309  0.108173  0.674596  1
  V  V5  1  0.662700  0.891841  0.325416  1
  O  O6  1  0.184004  0.944909  0.368020  1
  O  O7  1  0.815978  0.055012  0.631944  1
  O  O8  1  0.106707  0.265073  0.213411  1
  O  O9  1  0.893306  0.734947  0.786616  1
  O  O10  1  0.245057  0.575447  0.490095  1
  O  O11  1  0.754914  0.424653  0.509848  1
  O  O12  1  0.365093  0.926209  0.730192  1
  O  O13  1  0.634907  0.073757  0.269807  1
  O  O14  1  0.263241  0.221771  0.526470  1
  O  O15  1  0.736734  0.778224  0.473483  1
  O  O16  1  0.395910  0.468476  0.791805  1
  O  O17  1  0.604088  0.531591  0.208188  1
  O  O18  1  0.436408  0.216968  0.872819  1
  O  O19  1  0.563599  0.782993  0.127194  1
  O  O20  1  0.999991  0.999976  0.999983  1
