# generated using pymatgen
data_Sn4(PO4)3
_symmetry_space_group_name_H-M   'P 1'
_cell_length_a   9.80301240
_cell_length_b   10.06269966
_cell_length_c   9.80301241
_cell_angle_alpha   90.08596494
_cell_angle_beta   59.95345184
_cell_angle_gamma   119.20341286
_symmetry_Int_Tables_number   1
_chemical_formula_structural   Sn4(PO4)3
_chemical_formula_sum   'Sn8 P6 O24'
_cell_volume   691.91939923
_cell_formula_units_Z   2
loop_
 _symmetry_equiv_pos_site_id
 _symmetry_equiv_pos_as_xyz
  1  'x, y, z'
loop_
 _atom_site_type_symbol
 _atom_site_label
 _atom_site_symmetry_multiplicity
 _atom_site_fract_x
 _atom_site_fract_y
 _atom_site_fract_z
 _atom_site_occupancy
  O  O0  1  0.826109  0.020947  0.909428  1
  O  O1  1  0.907309  0.085605  0.619121  1
  O  O2  1  0.907508  0.585676  0.973338  1
  O  O3  1  0.930024  0.020818  0.264751  1
  O  O4  1  0.825625  0.520798  0.764707  1
  O  O5  1  0.559014  0.085676  0.821832  1
  O  O6  1  0.704460  0.085787  0.473377  1
  O  O7  1  0.828034  0.174191  0.172389  1
  O  O8  1  0.930375  0.520947  0.305162  1
  O  O9  1  0.346346  0.173903  0.999742  1
  O  O10  1  0.559878  0.311188  0.692657  1
  O  O11  1  0.827446  0.673597  0.500132  1
  O  O12  1  0.285505  0.020798  0.804827  1
  O  O13  1  0.704725  0.585605  0.321704  1
  O  O14  1  0.173729  0.173597  0.653849  1
  O  O15  1  0.559164  0.585787  0.118673  1
  O  O16  1  0.559817  0.811338  0.247539  1
  O  O17  1  0.285569  0.520818  0.409206  1
  O  O18  1  0.004299  0.311322  0.747313  1
  O  O19  1  0.173645  0.673903  0.672444  1
  O  O20  1  0.346581  0.674191  0.153843  1
  O  O21  1  0.058877  0.311338  0.248480  1
  O  O22  1  0.003845  0.811188  0.748690  1
  O  O23  1  0.058635  0.811322  0.192977  1
  P  P24  1  0.976138  0.147019  0.731855  1
  P  P25  1  0.976086  0.646991  0.792049  1
  P  P26  1  0.878945  0.146905  0.291904  1
  P  P27  1  0.439039  0.146991  0.829096  1
  P  P28  1  0.878874  0.647019  0.329119  1
  P  P29  1  0.438809  0.646905  0.232040  1
  Sn  Sn30  1  0.622555  0.524945  0.751158  1
  Sn  Sn31  1  0.623393  0.025322  0.126380  1
  Sn  Sn32  1  0.276103  0.024945  0.597609  1
  Sn  Sn33  1  0.623579  0.435678  0.187693  1
  Sn  Sn34  1  0.623371  0.935678  0.687901  1
  Sn  Sn35  1  0.277401  0.525908  0.625565  1
  Sn  Sn36  1  0.151473  0.025908  0.251493  1
  Sn  Sn37  1  0.151702  0.525322  0.098071  1
