# generated using pymatgen
data_NiO2
_symmetry_space_group_name_H-M   'P 1'
_cell_length_a   4.58237585
_cell_length_b   4.92272458
_cell_length_c   4.58237562
_cell_angle_alpha   102.75959888
_cell_angle_beta   65.01788920
_cell_angle_gamma   77.24039022
_symmetry_Int_Tables_number   1
_chemical_formula_structural   NiO2
_chemical_formula_sum   'Ni2 O4'
_cell_volume   85.41936180
_cell_formula_units_Z   2
loop_
 _symmetry_equiv_pos_site_id
 _symmetry_equiv_pos_as_xyz
  1  'x, y, z'
loop_
 _atom_site_type_symbol
 _atom_site_label
 _atom_site_symmetry_multiplicity
 _atom_site_fract_x
 _atom_site_fract_y
 _atom_site_fract_z
 _atom_site_occupancy
  Ni  Ni0  1  0.249997  0.250005  0.750003  1
  Ni  Ni1  1  0.749997  0.750000  0.250003  1
  O  O2  1  0.152260  0.500021  0.152302  1
  O  O3  1  0.652295  0.999976  0.652247  1
  O  O4  1  0.347753  0.999976  0.347705  1
  O  O5  1  0.847698  0.500021  0.847740  1
