# generated using pymatgen
data_Ti(SiO3)2
_symmetry_space_group_name_H-M   'P 1'
_cell_length_a   6.52642004
_cell_length_b   6.52642004
_cell_length_c   5.31752000
_cell_angle_alpha   75.41593802
_cell_angle_beta   104.58406198
_cell_angle_gamma   95.88446937
_symmetry_Int_Tables_number   1
_chemical_formula_structural   Ti(SiO3)2
_chemical_formula_sum   'Ti2 Si4 O12'
_cell_volume   211.94961582
_cell_formula_units_Z   2
loop_
 _symmetry_equiv_pos_site_id
 _symmetry_equiv_pos_as_xyz
  1  'x, y, z'
loop_
 _atom_site_type_symbol
 _atom_site_label
 _atom_site_symmetry_multiplicity
 _atom_site_fract_x
 _atom_site_fract_y
 _atom_site_fract_z
 _atom_site_occupancy
  O  O0  1  0.034100  0.796860  0.656730  1
  O  O1  1  0.203140  0.965900  0.156730  1
  O  O2  1  0.113800  0.375160  0.828030  1
  O  O3  1  0.356340  0.645500  0.558430  1
  O  O4  1  0.624840  0.886200  0.328030  1
  O  O5  1  0.354500  0.643660  0.058430  1
  O  O6  1  0.645500  0.356340  0.941570  1
  O  O7  1  0.375160  0.113800  0.671970  1
  O  O8  1  0.643660  0.354500  0.441570  1
  O  O9  1  0.886200  0.624840  0.171970  1
  O  O10  1  0.796860  0.034100  0.843270  1
  O  O11  1  0.965900  0.203140  0.343270  1
  Si  Si12  1  0.209220  0.613208  0.771510  1
  Si  Si13  1  0.386792  0.790780  0.271510  1
  Si  Si14  1  0.613208  0.209220  0.728490  1
  Si  Si15  1  0.790780  0.386792  0.228490  1
  Ti  Ti16  1  0.097535  0.097535  0.750000  1
  Ti  Ti17  1  0.902465  0.902465  0.250000  1
