# generated using pymatgen
data_CuO2
_symmetry_space_group_name_H-M   'P 1'
_cell_length_a   4.96611727
_cell_length_b   4.96611727
_cell_length_c   4.96611722
_cell_angle_alpha   33.48861646
_cell_angle_beta   33.48861744
_cell_angle_gamma   33.48862134
_symmetry_Int_Tables_number   1
_chemical_formula_structural   CuO2
_chemical_formula_sum   'Cu1 O2'
_cell_volume   33.20955695
_cell_formula_units_Z   1
loop_
 _symmetry_equiv_pos_site_id
 _symmetry_equiv_pos_as_xyz
  1  'x, y, z'
loop_
 _atom_site_type_symbol
 _atom_site_label
 _atom_site_symmetry_multiplicity
 _atom_site_fract_x
 _atom_site_fract_y
 _atom_site_fract_z
 _atom_site_occupancy
  O  O0  1  0.261208  0.261206  0.261207  1
  O  O1  1  0.738795  0.738792  0.738793  1
  Cu  Cu2  1  0.000000  0.000000  0.000000  1
