# generated using pymatgen
data_FePO4
_symmetry_space_group_name_H-M   'P 1'
_cell_length_a   19.35354000
_cell_length_b   5.30642100
_cell_length_c   7.92173000
_cell_angle_alpha   90.00000000
_cell_angle_beta   90.00000000
_cell_angle_gamma   90.00000000
_symmetry_Int_Tables_number   1
_chemical_formula_structural   FePO4
_chemical_formula_sum   'Fe12 P12 O48'
_cell_volume   813.54607375
_cell_formula_units_Z   12
loop_
 _symmetry_equiv_pos_site_id
 _symmetry_equiv_pos_as_xyz
  1  'x, y, z'
loop_
 _atom_site_type_symbol
 _atom_site_label
 _atom_site_symmetry_multiplicity
 _atom_site_fract_x
 _atom_site_fract_y
 _atom_site_fract_z
 _atom_site_occupancy
  Fe  Fe0  1  0.000065  0.734629  0.250153  1
  Fe  Fe1  1  0.166606  0.237291  0.748906  1
  Fe  Fe2  1  0.166735  0.736503  0.248641  1
  Fe  Fe3  1  0.333265  0.236503  0.748641  1
  Fe  Fe4  1  0.333394  0.737291  0.248906  1
  Fe  Fe5  1  0.499935  0.234629  0.750153  1
  Fe  Fe6  1  0.500065  0.734629  0.249847  1
  Fe  Fe7  1  0.666606  0.237291  0.751094  1
  Fe  Fe8  1  0.666735  0.736503  0.251359  1
  Fe  Fe9  1  0.833265  0.236503  0.751359  1
  Fe  Fe10  1  0.833394  0.737291  0.251094  1
  Fe  Fe11  1  0.999935  0.234629  0.749847  1
  O  O12  1  0.017624  0.235169  0.510979  1
  O  O13  1  0.017795  0.735645  0.011320  1
  O  O14  1  0.083168  0.475846  0.286174  1
  O  O15  1  0.083137  0.976508  0.786318  1
  O  O16  1  0.083210  0.495372  0.786291  1
  O  O17  1  0.083263  0.994781  0.286454  1
  O  O18  1  0.148789  0.236010  0.510669  1
  O  O19  1  0.148934  0.736278  0.010325  1
  O  O20  1  0.184370  0.236559  0.987339  1
  O  O21  1  0.184462  0.736263  0.487073  1
  O  O22  1  0.250021  0.996318  0.211883  1
  O  O23  1  0.249949  0.977501  0.711477  1
  O  O24  1  0.250051  0.477501  0.211477  1
  O  O25  1  0.249979  0.496318  0.711883  1
  O  O26  1  0.315538  0.236263  0.987073  1
  O  O27  1  0.315630  0.736559  0.487339  1
  O  O28  1  0.351066  0.236278  0.510325  1
  O  O29  1  0.351211  0.736010  0.010669  1
  O  O30  1  0.416737  0.494781  0.786454  1
  O  O31  1  0.416790  0.995372  0.286291  1
  O  O32  1  0.416863  0.476508  0.286318  1
  O  O33  1  0.416832  0.975846  0.786174  1
  O  O34  1  0.482205  0.235645  0.511320  1
  O  O35  1  0.482376  0.735169  0.010979  1
  O  O36  1  0.517624  0.235169  0.989021  1
  O  O37  1  0.517795  0.735645  0.488680  1
  O  O38  1  0.583168  0.475846  0.213826  1
  O  O39  1  0.583137  0.976508  0.713682  1
  O  O40  1  0.583210  0.495372  0.713709  1
  O  O41  1  0.583263  0.994781  0.213546  1
  O  O42  1  0.648789  0.236010  0.989331  1
  O  O43  1  0.648934  0.736278  0.489675  1
  O  O44  1  0.684370  0.236559  0.512661  1
  O  O45  1  0.684462  0.736263  0.012927  1
  O  O46  1  0.750021  0.996318  0.288117  1
  O  O47  1  0.749949  0.977501  0.788523  1
  O  O48  1  0.750051  0.477501  0.288523  1
  O  O49  1  0.749979  0.496318  0.788117  1
  O  O50  1  0.815538  0.236263  0.512927  1
  O  O51  1  0.815630  0.736559  0.012661  1
  O  O52  1  0.851066  0.236278  0.989675  1
  O  O53  1  0.851211  0.736010  0.489331  1
  O  O54  1  0.916737  0.494781  0.713546  1
  O  O55  1  0.916790  0.995372  0.213709  1
  O  O56  1  0.916863  0.476508  0.213682  1
  O  O57  1  0.916832  0.975846  0.713826  1
  O  O58  1  0.982205  0.235645  0.988680  1
  O  O59  1  0.982376  0.735169  0.489021  1
  P  P60  1  0.083156  0.235432  0.402084  1
  P  P61  1  0.083217  0.735943  0.902168  1
  P  P62  1  0.250011  0.236778  0.095894  1
  P  P63  1  0.249989  0.736778  0.595894  1
  P  P64  1  0.416783  0.235943  0.402168  1
  P  P65  1  0.416844  0.735432  0.902084  1
  P  P66  1  0.583156  0.235432  0.097916  1
  P  P67  1  0.583217  0.735943  0.597832  1
  P  P68  1  0.750011  0.236778  0.404106  1
  P  P69  1  0.749989  0.736778  0.904106  1
  P  P70  1  0.916783  0.235943  0.097832  1
  P  P71  1  0.916844  0.735432  0.597916  1
