# generated using pymatgen
data_Cu9(PO4)8
_symmetry_space_group_name_H-M   'P 1'
_cell_length_a   9.14657936
_cell_length_b   8.91981870
_cell_length_c   8.75572890
_cell_angle_alpha   104.84650149
_cell_angle_beta   99.31860315
_cell_angle_gamma   112.61604688
_symmetry_Int_Tables_number   1
_chemical_formula_structural   Cu9(PO4)8
_chemical_formula_sum   'Cu9 P8 O32'
_cell_volume   609.63870323
_cell_formula_units_Z   1
loop_
 _symmetry_equiv_pos_site_id
 _symmetry_equiv_pos_as_xyz
  1  'x, y, z'
loop_
 _atom_site_type_symbol
 _atom_site_label
 _atom_site_symmetry_multiplicity
 _atom_site_fract_x
 _atom_site_fract_y
 _atom_site_fract_z
 _atom_site_occupancy
  O  O0  1  0.448716  0.260561  0.897092  1
  O  O1  1  0.975284  0.530870  0.722798  1
  O  O2  1  0.728711  0.100023  0.437596  1
  O  O3  1  0.655968  0.058510  0.117898  1
  O  O4  1  0.885840  0.752139  0.409075  1
  O  O5  1  0.763751  0.441891  0.412102  1
  O  O6  1  0.936576  0.803422  0.816238  1
  O  O7  1  0.715041  0.533422  0.153055  1
  O  O8  1  0.870592  0.063154  0.692245  1
  O  O9  1  0.129408  0.936846  0.307755  1
  O  O10  1  0.003666  0.669203  0.023478  1
  O  O11  1  0.024716  0.469130  0.277202  1
  O  O12  1  0.271289  0.899977  0.562404  1
  O  O13  1  0.344032  0.941490  0.882102  1
  O  O14  1  0.114160  0.247861  0.590925  1
  O  O15  1  0.236249  0.558109  0.587898  1
  O  O16  1  0.063424  0.196578  0.183762  1
  O  O17  1  0.284959  0.466578  0.846945  1
  O  O18  1  0.329928  0.812110  0.280086  1
  O  O19  1  0.670072  0.187890  0.719914  1
  O  O20  1  0.281193  0.474518  0.185629  1
  O  O21  1  0.579874  0.828014  0.844805  1
  O  O22  1  0.564864  0.873683  0.552486  1
  O  O23  1  0.427511  0.423533  0.615912  1
  O  O24  1  0.176937  0.117105  0.931375  1
  O  O25  1  0.551284  0.739439  0.102908  1
  O  O26  1  0.572489  0.576467  0.384088  1
  O  O27  1  0.435136  0.126317  0.447514  1
  O  O28  1  0.420126  0.171986  0.155195  1
  O  O29  1  0.718807  0.525482  0.814371  1
  O  O30  1  0.823063  0.882895  0.068625  1
  O  O31  1  0.996334  0.330797  0.976522  1
  P  P32  1  0.287697  0.937647  0.402570  1
  P  P33  1  0.091716  0.372984  0.157716  1
  P  P34  1  0.272708  0.427503  0.653882  1
  P  P35  1  0.352597  0.119961  0.965643  1
  P  P36  1  0.647403  0.880039  0.034357  1
  P  P37  1  0.727292  0.572497  0.346118  1
  P  P38  1  0.908284  0.627016  0.842284  1
  P  P39  1  0.712303  0.062353  0.597430  1
  Cu  Cu40  1  0.932550  0.727804  0.207781  1
  Cu  Cu41  1  0.568002  0.123400  0.287968  1
  Cu  Cu42  1  0.556971  0.308675  0.660117  1
  Cu  Cu43  1  0.500000  0.500000  0.000000  1
  Cu  Cu44  1  0.443029  0.691325  0.339883  1
  Cu  Cu45  1  0.000000  0.000000  0.000000  1
  Cu  Cu46  1  0.431998  0.876600  0.712032  1
  Cu  Cu47  1  0.067449  0.272196  0.792219  1
  Cu  Cu48  1  0.000000  0.500000  0.500000  1
