# generated using pymatgen
data_TiO2
_symmetry_space_group_name_H-M   'P 1'
_cell_length_a   5.95459570
_cell_length_b   5.95459570
_cell_length_c   5.95459570
_cell_angle_alpha   60.00000001
_cell_angle_beta   60.00000002
_cell_angle_gamma   59.99999997
_symmetry_Int_Tables_number   1
_chemical_formula_structural   TiO2
_chemical_formula_sum   'Ti4 O8'
_cell_volume   149.29382359
_cell_formula_units_Z   4
loop_
 _symmetry_equiv_pos_site_id
 _symmetry_equiv_pos_as_xyz
  1  'x, y, z'
loop_
 _atom_site_type_symbol
 _atom_site_label
 _atom_site_symmetry_multiplicity
 _atom_site_fract_x
 _atom_site_fract_y
 _atom_site_fract_z
 _atom_site_occupancy
  O  O0  1  0.262946  0.262946  0.262946  1
  O  O1  1  0.711162  0.262946  0.262946  1
  O  O2  1  0.262946  0.711162  0.262946  1
  O  O3  1  0.262946  0.262946  0.711162  1
  O  O4  1  0.737054  0.288838  0.737054  1
  O  O5  1  0.737054  0.737054  0.288838  1
  O  O6  1  0.288838  0.737054  0.737054  1
  O  O7  1  0.737054  0.737054  0.737054  1
  Ti  Ti8  1  0.500000  0.000000  0.500000  1
  Ti  Ti9  1  0.500000  0.500000  0.000000  1
  Ti  Ti10  1  0.000000  0.500000  0.500000  1
  Ti  Ti11  1  0.500000  0.500000  0.500000  1
