# generated using pymatgen
data_V2O5
_symmetry_space_group_name_H-M   'P 1'
_cell_length_a   3.57737863
_cell_length_b   10.18239726
_cell_length_c   10.28680491
_cell_angle_alpha   90.00000000
_cell_angle_beta   90.00000000
_cell_angle_gamma   90.00000000
_symmetry_Int_Tables_number   1
_chemical_formula_structural   V2O5
_chemical_formula_sum   'V8 O20'
_cell_volume   374.71014253
_cell_formula_units_Z   4
loop_
 _symmetry_equiv_pos_site_id
 _symmetry_equiv_pos_as_xyz
  1  'x, y, z'
loop_
 _atom_site_type_symbol
 _atom_site_label
 _atom_site_symmetry_multiplicity
 _atom_site_fract_x
 _atom_site_fract_y
 _atom_site_fract_z
 _atom_site_occupancy
  V  V0  1  0.250000  0.373894  0.515703  1
  V  V1  1  0.750000  0.126106  0.015703  1
  V  V2  1  0.250000  0.873894  0.984297  1
  V  V3  1  0.750000  0.626106  0.484297  1
  V  V4  1  0.750000  0.427243  0.102521  1
  V  V5  1  0.250000  0.072757  0.602521  1
  V  V6  1  0.750000  0.927243  0.397479  1
  V  V7  1  0.250000  0.572757  0.897479  1
  O  O8  1  0.750000  0.064281  0.540808  1
  O  O9  1  0.250000  0.435719  0.040808  1
  O  O10  1  0.250000  0.935719  0.459192  1
  O  O11  1  0.750000  0.564281  0.959192  1
  O  O12  1  0.250000  0.791770  0.116875  1
  O  O13  1  0.250000  0.291770  0.383125  1
  O  O14  1  0.750000  0.708230  0.616875  1
  O  O15  1  0.750000  0.208230  0.883125  1
  O  O16  1  0.750000  0.429353  0.536979  1
  O  O17  1  0.250000  0.570647  0.463021  1
  O  O18  1  0.250000  0.070647  0.036979  1
  O  O19  1  0.750000  0.929353  0.963021  1
  O  O20  1  0.250000  0.245262  0.637531  1
  O  O21  1  0.250000  0.745262  0.862469  1
  O  O22  1  0.750000  0.254738  0.137531  1
  O  O23  1  0.750000  0.754738  0.362469  1
  O  O24  1  0.250000  0.500496  0.759533  1
  O  O25  1  0.750000  0.499504  0.240466  1
  O  O26  1  0.750000  0.999504  0.259533  1
  O  O27  1  0.250000  0.000496  0.740467  1
