# generated using pymatgen
data_CuO
_symmetry_space_group_name_H-M   'P 1'
_cell_length_a   6.31443344
_cell_length_b   6.31443344
_cell_length_c   6.31443344
_cell_angle_alpha   95.21935242
_cell_angle_beta   95.21935242
_cell_angle_gamma   144.89127070
_symmetry_Int_Tables_number   1
_chemical_formula_structural   CuO
_chemical_formula_sum   'Cu4 O4'
_cell_volume   138.05701241
_cell_formula_units_Z   4
loop_
 _symmetry_equiv_pos_site_id
 _symmetry_equiv_pos_as_xyz
  1  'x, y, z'
loop_
 _atom_site_type_symbol
 _atom_site_label
 _atom_site_symmetry_multiplicity
 _atom_site_fract_x
 _atom_site_fract_y
 _atom_site_fract_z
 _atom_site_occupancy
  O  O0  1  0.555584  0.749672  0.805912  1
  O  O1  1  0.250328  0.056240  0.805912  1
  O  O2  1  0.250328  0.444416  0.194088  1
  O  O3  1  0.943760  0.749672  0.194088  1
  Cu  Cu4  1  0.407080  0.907080  0.814160  1
  Cu  Cu5  1  0.092920  0.907080  0.500000  1
  Cu  Cu6  1  0.407080  0.592920  0.500000  1
  Cu  Cu7  1  0.092920  0.592920  0.185840  1
