# generated using pymatgen
data_Ba2(CuO2)3
_symmetry_space_group_name_H-M   'P 1'
_cell_length_a   9.17545959
_cell_length_b   8.24009216
_cell_length_c   7.07584371
_cell_angle_alpha   73.16238703
_cell_angle_beta   59.26694264
_cell_angle_gamma   47.57067031
_symmetry_Int_Tables_number   1
_chemical_formula_structural   Ba2(CuO2)3
_chemical_formula_sum   'Ba4 Cu6 O12'
_cell_volume   338.13376402
_cell_formula_units_Z   2
loop_
 _symmetry_equiv_pos_site_id
 _symmetry_equiv_pos_as_xyz
  1  'x, y, z'
loop_
 _atom_site_type_symbol
 _atom_site_label
 _atom_site_symmetry_multiplicity
 _atom_site_fract_x
 _atom_site_fract_y
 _atom_site_fract_z
 _atom_site_occupancy
  O  O0  1  0.506000  0.687400  0.711800  1
  O  O1  1  0.312600  0.494000  0.905200  1
  O  O2  1  0.288200  0.905200  0.494000  1
  O  O3  1  0.094800  0.711800  0.687400  1
  O  O4  1  0.915100  0.688100  0.311900  1
  O  O5  1  0.311900  0.084900  0.915100  1
  O  O6  1  0.084900  0.311900  0.688100  1
  O  O7  1  0.688100  0.915100  0.084900  1
  O  O8  1  0.905200  0.288200  0.312600  1
  O  O9  1  0.494000  0.312600  0.288200  1
  O  O10  1  0.687400  0.506000  0.094800  1
  O  O11  1  0.711800  0.094800  0.506000  1
  Cu  Cu12  1  0.312480  0.687520  0.687520  1
  Cu  Cu13  1  0.687520  0.312480  0.312480  1
  Cu  Cu14  1  0.309780  0.999800  0.690220  1
  Cu  Cu15  1  0.000200  0.690220  0.999800  1
  Cu  Cu16  1  0.999800  0.309780  0.000200  1
  Cu  Cu17  1  0.690220  0.000200  0.309780  1
  Ba  Ba18  1  0.750000  0.750000  0.750000  1
  Ba  Ba19  1  0.766090  0.233910  0.766090  1
  Ba  Ba20  1  0.233910  0.766090  0.233910  1
  Ba  Ba21  1  0.250000  0.250000  0.250000  1
