# generated using pymatgen
data_NiO2
_symmetry_space_group_name_H-M   'P 1'
_cell_length_a   5.08917720
_cell_length_b   5.08917714
_cell_length_c   5.08917755
_cell_angle_alpha   32.30633668
_cell_angle_beta   32.30634055
_cell_angle_gamma   32.30633712
_symmetry_Int_Tables_number   1
_chemical_formula_structural   NiO2
_chemical_formula_sum   'Ni1 O2'
_cell_volume   33.46685798
_cell_formula_units_Z   1
loop_
 _symmetry_equiv_pos_site_id
 _symmetry_equiv_pos_as_xyz
  1  'x, y, z'
loop_
 _atom_site_type_symbol
 _atom_site_label
 _atom_site_symmetry_multiplicity
 _atom_site_fract_x
 _atom_site_fract_y
 _atom_site_fract_z
 _atom_site_occupancy
  Ni  Ni0  1  0.000000  0.000000  0.000000  1
  O  O1  1  0.267922  0.267920  0.267921  1
  O  O2  1  0.732081  0.732078  0.732079  1
