# generated using pymatgen
data_NbO2
_symmetry_space_group_name_H-M   'P 1'
_cell_length_a   2.69563700
_cell_length_b   2.69563664
_cell_length_c   9.70500800
_cell_angle_alpha   90.00000000
_cell_angle_beta   90.00000000
_cell_angle_gamma   119.99999209
_symmetry_Int_Tables_number   1
_chemical_formula_structural   NbO2
_chemical_formula_sum   'Nb2 O4'
_cell_volume   61.07300995
_cell_formula_units_Z   2
loop_
 _symmetry_equiv_pos_site_id
 _symmetry_equiv_pos_as_xyz
  1  'x, y, z'
loop_
 _atom_site_type_symbol
 _atom_site_label
 _atom_site_symmetry_multiplicity
 _atom_site_fract_x
 _atom_site_fract_y
 _atom_site_fract_z
 _atom_site_occupancy
  Nb  Nb0  1  0.666600  0.333300  0.250000  1
  Nb  Nb1  1  0.333400  0.666700  0.750000  1
  O  O2  1  0.666700  0.333300  0.876040  1
  O  O3  1  0.666700  0.333300  0.623960  1
  O  O4  1  0.333300  0.666700  0.376040  1
  O  O5  1  0.333300  0.666600  0.123960  1
