# generated using pymatgen
data_CoO2
_symmetry_space_group_name_H-M   'P 1'
_cell_length_a   2.83884790
_cell_length_b   5.00947612
_cell_length_c   4.90457631
_cell_angle_alpha   99.14814257
_cell_angle_beta   89.99999417
_cell_angle_gamma   73.53989010
_symmetry_Int_Tables_number   1
_chemical_formula_structural   CoO2
_chemical_formula_sum   'Co2 O4'
_cell_volume   65.96458014
_cell_formula_units_Z   2
loop_
 _symmetry_equiv_pos_site_id
 _symmetry_equiv_pos_as_xyz
  1  'x, y, z'
loop_
 _atom_site_type_symbol
 _atom_site_label
 _atom_site_symmetry_multiplicity
 _atom_site_fract_x
 _atom_site_fract_y
 _atom_site_fract_z
 _atom_site_occupancy
  Co  Co0  1  0.000000  0.000000  0.000000  1
  Co  Co1  1  0.500000  0.000000  0.500000  1
  O  O2  1  0.901869  0.196263  0.366326  1
  O  O3  1  0.401877  0.196245  0.866347  1
  O  O4  1  0.098131  0.803737  0.633674  1
  O  O5  1  0.598123  0.803755  0.133653  1
