# generated using pymatgen
data_Mo2(PO4)3
_symmetry_space_group_name_H-M   'P 1'
_cell_length_a   8.76669293
_cell_length_b   9.04543108
_cell_length_c   8.78412435
_cell_angle_alpha   90.06401592
_cell_angle_beta   60.07380345
_cell_angle_gamma   118.95880304
_symmetry_Int_Tables_number   1
_chemical_formula_structural   Mo2(PO4)3
_chemical_formula_sum   'Mo4 P6 O24'
_cell_volume   500.95899453
_cell_formula_units_Z   2
loop_
 _symmetry_equiv_pos_site_id
 _symmetry_equiv_pos_as_xyz
  1  'x, y, z'
loop_
 _atom_site_type_symbol
 _atom_site_label
 _atom_site_symmetry_multiplicity
 _atom_site_fract_x
 _atom_site_fract_y
 _atom_site_fract_z
 _atom_site_occupancy
  Mo  Mo0  1  0.713120  0.068146  0.644874  1
  Mo  Mo1  1  0.711405  0.571204  0.142839  1
  Mo  Mo2  1  0.285503  0.428610  0.854240  1
  Mo  Mo3  1  0.291902  0.932317  0.353980  1
  P  P4  1  0.782128  0.248312  0.964588  1
  P  P5  1  0.506761  0.751227  0.462167  1
  P  P6  1  0.503877  0.249804  0.532121  1
  P  P7  1  0.212885  0.749023  0.032014  1
  P  P8  1  0.782540  0.750234  0.752390  1
  P  P9  1  0.214164  0.250139  0.250727  1
  O  O10  1  0.222272  0.781112  0.199280  1
  O  O11  1  0.230851  0.091435  0.270494  1
  O  O12  1  0.189822  0.266542  0.093963  1
  O  O13  1  0.009258  0.212080  0.436550  1
  O  O14  1  0.777751  0.918227  0.742488  1
  O  O15  1  0.786031  0.716630  0.926951  1
  O  O16  1  0.974170  0.770998  0.582090  1
  O  O17  1  0.408305  0.912303  0.853805  1
  O  O18  1  0.778619  0.414784  0.995790  1
  O  O19  1  0.651680  0.912529  0.495375  1
  O  O20  1  0.579961  0.584533  0.792259  1
  O  O21  1  0.012719  0.729753  0.067034  1
  O  O22  1  0.362169  0.784400  0.439727  1
  O  O23  1  0.657388  0.732080  0.283397  1
  O  O24  1  0.207127  0.579214  0.006803  1
  O  O25  1  0.366092  0.581041  0.622003  1
  O  O26  1  0.635498  0.417083  0.361108  1
  O  O27  1  0.606122  0.084903  0.135955  1
  O  O28  1  0.371654  0.277505  0.711443  1
  O  O29  1  0.662523  0.228394  0.542554  1
  O  O30  1  0.993937  0.281036  0.909192  1
  O  O31  1  0.403004  0.422561  0.228776  1
  O  O32  1  0.351225  0.085358  0.511748  1
  O  O33  1  0.757540  0.216485  0.801274  1
