# generated using pymatgen
data_Ni3(P2O7)2
_symmetry_space_group_name_H-M   'P 1'
_cell_length_a   7.19261648
_cell_length_b   7.85074853
_cell_length_c   9.30405823
_cell_angle_alpha   90.00000000
_cell_angle_beta   110.34412838
_cell_angle_gamma   90.00000000
_symmetry_Int_Tables_number   1
_chemical_formula_structural   Ni3(P2O7)2
_chemical_formula_sum   'Ni6 P8 O28'
_cell_volume   492.60398968
_cell_formula_units_Z   2
loop_
 _symmetry_equiv_pos_site_id
 _symmetry_equiv_pos_as_xyz
  1  'x, y, z'
loop_
 _atom_site_type_symbol
 _atom_site_label
 _atom_site_symmetry_multiplicity
 _atom_site_fract_x
 _atom_site_fract_y
 _atom_site_fract_z
 _atom_site_occupancy
  Ni  Ni0  1  0.811762  0.373803  0.476386  1
  Ni  Ni1  1  0.811763  0.126197  0.976386  1
  Ni  Ni2  1  0.188238  0.873803  0.023614  1
  Ni  Ni3  1  0.000000  0.500000  0.000000  1
  Ni  Ni4  1  0.188237  0.626197  0.523613  1
  Ni  Ni5  1  0.000000  0.000000  0.500000  1
  P  P6  1  0.114174  0.290623  0.304088  1
  P  P7  1  0.401622  0.950845  0.793445  1
  P  P8  1  0.401623  0.549155  0.293445  1
  P  P9  1  0.598378  0.450845  0.706555  1
  P  P10  1  0.598378  0.049155  0.206555  1
  P  P11  1  0.885826  0.709377  0.695913  1
  P  P12  1  0.114175  0.209377  0.804088  1
  P  P13  1  0.885825  0.790623  0.195912  1
  O  O14  1  0.729748  0.386011  0.867140  1
  O  O15  1  0.999780  0.291841  0.127186  1
  O  O16  1  0.969808  0.922286  0.109544  1
  O  O17  1  0.862409  0.617258  0.121201  1
  O  O18  1  0.999779  0.208159  0.627186  1
  O  O19  1  0.969808  0.577713  0.609545  1
  O  O20  1  0.000220  0.708159  0.872814  1
  O  O21  1  0.030192  0.077713  0.890456  1
  O  O22  1  0.137590  0.382742  0.878798  1
  O  O23  1  0.000219  0.791841  0.372814  1
  O  O24  1  0.030193  0.422286  0.390455  1
  O  O25  1  0.325673  0.141215  0.812569  1
  O  O26  1  0.366378  0.836909  0.915707  1
  O  O27  1  0.137590  0.117258  0.378798  1
  O  O28  1  0.270252  0.886011  0.632860  1
  O  O29  1  0.379411  0.476961  0.680533  1
  O  O30  1  0.325673  0.358785  0.312570  1
  O  O31  1  0.633621  0.163091  0.084292  1
  O  O32  1  0.270252  0.613989  0.132860  1
  O  O33  1  0.620589  0.976961  0.819467  1
  O  O34  1  0.379412  0.023039  0.180533  1
  O  O35  1  0.674328  0.858785  0.187431  1
  O  O36  1  0.633622  0.336909  0.584293  1
  O  O37  1  0.674327  0.641215  0.687430  1
  O  O38  1  0.620589  0.523039  0.319467  1
  O  O39  1  0.729747  0.113989  0.367139  1
  O  O40  1  0.862410  0.882742  0.621202  1
  O  O41  1  0.366378  0.663091  0.415707  1
