# generated using pymatgen
data_Mo2P3O13
_symmetry_space_group_name_H-M   'P 1'
_cell_length_a   6.40906887
_cell_length_b   7.59572258
_cell_length_c   11.17724468
_cell_angle_alpha   75.44390338
_cell_angle_beta   86.40187557
_cell_angle_gamma   80.17705079
_symmetry_Int_Tables_number   1
_chemical_formula_structural   Mo2P3O13
_chemical_formula_sum   'Mo4 P6 O26'
_cell_volume   518.82605223
_cell_formula_units_Z   2
loop_
 _symmetry_equiv_pos_site_id
 _symmetry_equiv_pos_as_xyz
  1  'x, y, z'
loop_
 _atom_site_type_symbol
 _atom_site_label
 _atom_site_symmetry_multiplicity
 _atom_site_fract_x
 _atom_site_fract_y
 _atom_site_fract_z
 _atom_site_occupancy
  Mo  Mo0  1  0.215382  0.212919  0.087557  1
  Mo  Mo1  1  0.758909  0.795590  0.406504  1
  Mo  Mo2  1  0.784618  0.787081  0.912443  1
  Mo  Mo3  1  0.241091  0.204410  0.593496  1
  P  P4  1  0.263405  0.932329  0.891570  1
  P  P5  1  0.742467  0.200163  0.665009  1
  P  P6  1  0.257533  0.799837  0.334991  1
  P  P7  1  0.736595  0.067671  0.108430  1
  P  P8  1  0.883615  0.524151  0.692296  1
  P  P9  1  0.116385  0.475849  0.307704  1
  O  O10  1  0.774473  0.628431  0.048228  1
  O  O11  1  0.476036  0.807654  0.878999  1
  O  O12  1  0.108433  0.455149  0.657427  1
  O  O13  1  0.221756  0.100891  0.780759  1
  O  O14  1  0.910158  0.190560  0.093398  1
  O  O15  1  0.857774  0.616823  0.800492  1
  O  O16  1  0.523964  0.192346  0.121001  1
  O  O17  1  0.268773  0.998217  0.011828  1
  O  O18  1  0.244633  0.989902  0.251937  1
  O  O19  1  0.142226  0.383177  0.199508  1
  O  O20  1  0.308967  0.988948  0.573250  1
  O  O21  1  0.756583  0.650626  0.580995  1
  O  O22  1  0.755367  0.010098  0.748063  1
  O  O23  1  0.926209  0.213471  0.569652  1
  O  O24  1  0.731227  0.001783  0.988172  1
  O  O25  1  0.225527  0.371569  0.951772  1
  O  O26  1  0.089842  0.809440  0.906602  1
  O  O27  1  0.243417  0.349374  0.419005  1
  O  O28  1  0.073791  0.786529  0.430348  1
  O  O29  1  0.525725  0.269345  0.602465  1
  O  O30  1  0.474275  0.730655  0.397535  1
  O  O31  1  0.891567  0.544851  0.342573  1
  O  O32  1  0.691033  0.011052  0.426750  1
  O  O33  1  0.760790  0.349101  0.743518  1
  O  O34  1  0.239210  0.650899  0.256482  1
  O  O35  1  0.778244  0.899109  0.219241  1
