# generated using pymatgen
data_LiSbF6
_symmetry_space_group_name_H-M   'P 1'
_cell_length_a   5.42999999
_cell_length_b   5.43000000
_cell_length_c   5.43000000
_cell_angle_alpha   56.97000003
_cell_angle_beta   56.97000001
_cell_angle_gamma   56.97000006
_symmetry_Int_Tables_number   1
_chemical_formula_structural   LiSbF6
_chemical_formula_sum   'Li1 Sb1 F6'
_cell_volume   105.29935566
_cell_formula_units_Z   1
loop_
 _symmetry_equiv_pos_site_id
 _symmetry_equiv_pos_as_xyz
  1  'x, y, z'
loop_
 _atom_site_type_symbol
 _atom_site_label
 _atom_site_symmetry_multiplicity
 _atom_site_fract_x
 _atom_site_fract_y
 _atom_site_fract_z
 _atom_site_occupancy
  Li  Li0  1  0.500000  0.500000  0.500000  1
  F  F1  1  0.656000  0.866000  0.239000  1
  F  F2  1  0.866000  0.239000  0.656000  1
  F  F3  1  0.761000  0.344000  0.134000  1
  F  F4  1  0.239000  0.656000  0.866000  1
  F  F5  1  0.134000  0.761000  0.344000  1
  F  F6  1  0.344000  0.134000  0.761000  1
  Sb  Sb7  1  0.000000  0.000000  0.000000  1
