# generated using pymatgen
data_V2(PO4)3
_symmetry_space_group_name_H-M   'P 1'
_cell_length_a   8.41066656
_cell_length_b   8.40621898
_cell_length_c   8.74438200
_cell_angle_alpha   117.90113767
_cell_angle_beta   90.40734346
_cell_angle_gamma   119.62632378
_symmetry_Int_Tables_number   1
_chemical_formula_structural   V2(PO4)3
_chemical_formula_sum   'V4 P6 O24'
_cell_volume   451.49298336
_cell_formula_units_Z   2
loop_
 _symmetry_equiv_pos_site_id
 _symmetry_equiv_pos_as_xyz
  1  'x, y, z'
loop_
 _atom_site_type_symbol
 _atom_site_label
 _atom_site_symmetry_multiplicity
 _atom_site_fract_x
 _atom_site_fract_y
 _atom_site_fract_z
 _atom_site_occupancy
  V  V0  1  0.136619  0.781269  0.918417  1
  V  V1  1  0.639732  0.790317  0.433819  1
  V  V2  1  0.360268  0.209683  0.566181  1
  V  V3  1  0.863381  0.218731  0.081583  1
  P  P4  1  0.031778  0.007635  0.754983  1
  P  P5  1  0.968222  0.992365  0.245017  1
  P  P6  1  0.752998  0.282537  0.744306  1
  P  P7  1  0.247002  0.717463  0.255694  1
  P  P8  1  0.471114  0.723373  0.748196  1
  P  P9  1  0.528886  0.276627  0.251804  1
  O  O10  1  0.982124  0.860686  0.054225  1
  O  O11  1  0.477050  0.766727  0.594552  1
  O  O12  1  0.017876  0.139314  0.945775  1
  O  O13  1  0.909550  0.505132  0.769423  1
  O  O14  1  0.901404  0.131884  0.233054  1
  O  O15  1  0.558399  0.261996  0.731874  1
  O  O16  1  0.829807  0.843465  0.610556  1
  O  O17  1  0.522950  0.233273  0.405448  1
  O  O18  1  0.813048  0.291010  0.917329  1
  O  O19  1  0.441601  0.738004  0.268126  1
  O  O20  1  0.249344  0.894406  0.428571  1
  O  O21  1  0.278253  0.687024  0.789468  1
  O  O22  1  0.471609  0.524115  0.701937  1
  O  O23  1  0.821187  0.833375  0.291332  1
  O  O24  1  0.098596  0.868116  0.766946  1
  O  O25  1  0.721747  0.312976  0.210532  1
  O  O26  1  0.090450  0.494868  0.230577  1
  O  O27  1  0.639706  0.928314  0.925185  1
  O  O28  1  0.750656  0.105594  0.571429  1
  O  O29  1  0.186952  0.708990  0.082671  1
  O  O30  1  0.170193  0.156535  0.389444  1
  O  O31  1  0.178813  0.166625  0.708668  1
  O  O32  1  0.360294  0.071686  0.074815  1
  O  O33  1  0.528391  0.475885  0.298063  1
