# generated using pymatgen
data_Fe2(PO4)3
_symmetry_space_group_name_H-M   'P 1'
_cell_length_a   8.70934776
_cell_length_b   12.09757208
_cell_length_c   8.74854084
_cell_angle_alpha   90.00000000
_cell_angle_beta   90.00000000
_cell_angle_gamma   90.28552610
_symmetry_Int_Tables_number   1
_chemical_formula_structural   Fe2(PO4)3
_chemical_formula_sum   'Fe8 P12 O48'
_cell_volume   921.75198477
_cell_formula_units_Z   4
loop_
 _symmetry_equiv_pos_site_id
 _symmetry_equiv_pos_as_xyz
  1  'x, y, z'
loop_
 _atom_site_type_symbol
 _atom_site_label
 _atom_site_symmetry_multiplicity
 _atom_site_fract_x
 _atom_site_fract_y
 _atom_site_fract_z
 _atom_site_occupancy
  Fe  Fe0  1  0.249633  0.383794  0.963467  1
  Fe  Fe1  1  0.749952  0.119385  0.964842  1
  Fe  Fe2  1  0.749633  0.883794  0.536533  1
  Fe  Fe3  1  0.250367  0.116206  0.463467  1
  Fe  Fe4  1  0.250048  0.880615  0.035158  1
  Fe  Fe5  1  0.750048  0.380615  0.464842  1
  Fe  Fe6  1  0.249952  0.619385  0.535158  1
  Fe  Fe7  1  0.750367  0.616206  0.036533  1
  P  P8  1  0.896115  0.146577  0.613326  1
  P  P9  1  0.964757  0.504448  0.751398  1
  P  P10  1  0.103885  0.853423  0.386674  1
  P  P11  1  0.035243  0.495552  0.248602  1
  P  P12  1  0.896302  0.853677  0.891244  1
  P  P13  1  0.396115  0.646577  0.886674  1
  P  P14  1  0.603885  0.353423  0.113326  1
  P  P15  1  0.535243  0.995552  0.251398  1
  P  P16  1  0.103698  0.146323  0.108756  1
  P  P17  1  0.396302  0.353677  0.608756  1
  P  P18  1  0.603698  0.646323  0.391244  1
  P  P19  1  0.464757  0.004448  0.748602  1
  O  O20  1  0.346229  0.264038  0.494137  1
  O  O21  1  0.056813  0.431598  0.862048  1
  O  O22  1  0.833505  0.564078  0.835530  1
  O  O23  1  0.838944  0.822594  0.730004  1
  O  O24  1  0.943187  0.568402  0.137952  1
  O  O25  1  0.147588  0.973768  0.420901  1
  O  O26  1  0.666495  0.935922  0.335530  1
  O  O27  1  0.661056  0.677406  0.230004  1
  O  O28  1  0.568826  0.668163  0.914386  1
  O  O29  1  0.929986  0.406430  0.321789  1
  O  O30  1  0.852412  0.026232  0.579099  1
  O  O31  1  0.333505  0.064078  0.664470  1
  O  O32  1  0.895550  0.428192  0.628550  1
  O  O33  1  0.073789  0.862999  0.889214  1
  O  O34  1  0.632410  0.325831  0.283760  1
  O  O35  1  0.443187  0.068402  0.362048  1
  O  O36  1  0.573789  0.362999  0.610786  1
  O  O37  1  0.367590  0.674169  0.716240  1
  O  O38  1  0.604450  0.071808  0.128550  1
  O  O39  1  0.070014  0.593570  0.678211  1
  O  O40  1  0.352412  0.526232  0.920901  1
  O  O41  1  0.570014  0.093570  0.821789  1
  O  O42  1  0.826064  0.964370  0.942920  1
  O  O43  1  0.173936  0.035630  0.057080  1
  O  O44  1  0.926211  0.137001  0.110786  1
  O  O45  1  0.647588  0.473768  0.079099  1
  O  O46  1  0.653771  0.735962  0.505863  1
  O  O47  1  0.931174  0.831837  0.414386  1
  O  O48  1  0.556813  0.931598  0.637952  1
  O  O49  1  0.804607  0.223079  0.506117  1
  O  O50  1  0.326064  0.464370  0.557080  1
  O  O51  1  0.429986  0.906430  0.178211  1
  O  O52  1  0.195393  0.776921  0.493883  1
  O  O53  1  0.846229  0.764038  0.005863  1
  O  O54  1  0.338944  0.322594  0.769996  1
  O  O55  1  0.068826  0.168163  0.585614  1
  O  O56  1  0.104450  0.571808  0.371450  1
  O  O57  1  0.867590  0.174169  0.783760  1
  O  O58  1  0.153771  0.235962  0.994137  1
  O  O59  1  0.431174  0.331837  0.085614  1
  O  O60  1  0.695393  0.276921  0.006117  1
  O  O61  1  0.132410  0.825831  0.216240  1
  O  O62  1  0.426211  0.637001  0.389214  1
  O  O63  1  0.395550  0.928192  0.871450  1
  O  O64  1  0.304607  0.723079  0.993883  1
  O  O65  1  0.161056  0.177406  0.269996  1
  O  O66  1  0.673936  0.535630  0.442920  1
  O  O67  1  0.166495  0.435922  0.164470  1
