# generated using pymatgen
data_Mo15S19
_symmetry_space_group_name_H-M   'P 1'
_cell_length_a   9.18380000
_cell_length_b   9.18380000
_cell_length_c   19.04830000
_cell_angle_alpha   90.00000000
_cell_angle_beta   90.00000000
_cell_angle_gamma   120.00000001
_symmetry_Int_Tables_number   1
_chemical_formula_structural   Mo15S19
_chemical_formula_sum   'Mo30 S38'
_cell_volume   1391.33493032
_cell_formula_units_Z   2
loop_
 _symmetry_equiv_pos_site_id
 _symmetry_equiv_pos_as_xyz
  1  'x, y, z'
loop_
 _atom_site_type_symbol
 _atom_site_label
 _atom_site_symmetry_multiplicity
 _atom_site_fract_x
 _atom_site_fract_y
 _atom_site_fract_z
 _atom_site_occupancy
  S  S0  1  0.666667  0.333333  0.466950  1
  S  S1  1  0.333333  0.666667  0.966950  1
  S  S2  1  0.333333  0.666667  0.533050  1
  S  S3  1  0.666667  0.333333  0.033050  1
  S  S4  1  0.000000  0.000000  0.659940  1
  S  S5  1  0.000000  0.000000  0.159940  1
  S  S6  1  0.000000  0.000000  0.340060  1
  S  S7  1  0.000000  0.000000  0.840060  1
  S  S8  1  0.694930  0.039110  0.250000  1
  S  S9  1  0.655820  0.694930  0.750000  1
  S  S10  1  0.039110  0.344180  0.750000  1
  S  S11  1  0.960890  0.655820  0.250000  1
  S  S12  1  0.344180  0.305070  0.250000  1
  S  S13  1  0.305070  0.960890  0.750000  1
  S  S14  1  0.011480  0.631520  0.643230  1
  S  S15  1  0.379960  0.011480  0.143230  1
  S  S16  1  0.712490  0.680090  0.547260  1
  S  S17  1  0.631520  0.620040  0.143230  1
  S  S18  1  0.620040  0.988520  0.643230  1
  S  S19  1  0.988520  0.368480  0.143230  1
  S  S20  1  0.988520  0.368480  0.356770  1
  S  S21  1  0.620040  0.988520  0.856770  1
  S  S22  1  0.368480  0.379960  0.856770  1
  S  S23  1  0.631520  0.620040  0.356770  1
  S  S24  1  0.379960  0.011480  0.356770  1
  S  S25  1  0.011480  0.631520  0.856770  1
  S  S26  1  0.319910  0.032400  0.547260  1
  S  S27  1  0.287510  0.319910  0.047260  1
  S  S28  1  0.032400  0.712490  0.047260  1
  S  S29  1  0.967600  0.287510  0.547260  1
  S  S30  1  0.319910  0.032400  0.952740  1
  S  S31  1  0.287510  0.319910  0.452740  1
  S  S32  1  0.032400  0.712490  0.452740  1
  S  S33  1  0.967600  0.287510  0.952740  1
  S  S34  1  0.712490  0.680090  0.952740  1
  S  S35  1  0.680090  0.967600  0.452740  1
  S  S36  1  0.680090  0.967600  0.047260  1
  S  S37  1  0.368480  0.379960  0.643230  1
  Mo  Mo38  1  0.842220  0.347060  0.250000  1
  Mo  Mo39  1  0.495160  0.842220  0.750000  1
  Mo  Mo40  1  0.347060  0.504840  0.750000  1
  Mo  Mo41  1  0.652940  0.495160  0.250000  1
  Mo  Mo42  1  0.504840  0.157780  0.250000  1
  Mo  Mo43  1  0.157780  0.652940  0.750000  1
  Mo  Mo44  1  0.315920  0.827510  0.629801  1
  Mo  Mo45  1  0.488410  0.315920  0.129801  1
  Mo  Mo46  1  0.827510  0.511590  0.129801  1
  Mo  Mo47  1  0.172490  0.488410  0.629801  1
  Mo  Mo48  1  0.511590  0.684080  0.629801  1
  Mo  Mo49  1  0.684080  0.172490  0.129801  1
  Mo  Mo50  1  0.684080  0.172490  0.370199  1
  Mo  Mo51  1  0.511590  0.684080  0.870199  1
  Mo  Mo52  1  0.172490  0.488410  0.870199  1
  Mo  Mo53  1  0.827510  0.511590  0.370199  1
  Mo  Mo54  1  0.488410  0.315920  0.370199  1
  Mo  Mo55  1  0.315920  0.827510  0.870199  1
  Mo  Mo56  1  0.177230  0.017640  0.437265  1
  Mo  Mo57  1  0.159590  0.177230  0.937265  1
  Mo  Mo58  1  0.017640  0.840410  0.937265  1
  Mo  Mo59  1  0.982360  0.159590  0.437265  1
  Mo  Mo60  1  0.840410  0.822770  0.437265  1
  Mo  Mo61  1  0.822770  0.982360  0.937265  1
  Mo  Mo62  1  0.822770  0.982360  0.562735  1
  Mo  Mo63  1  0.840410  0.822770  0.062735  1
  Mo  Mo64  1  0.982360  0.159590  0.062735  1
  Mo  Mo65  1  0.017640  0.840410  0.562735  1
  Mo  Mo66  1  0.159590  0.177230  0.562735  1
  Mo  Mo67  1  0.177230  0.017640  0.062735  1
