# generated using pymatgen
data_NaFe3(PO4)3
_symmetry_space_group_name_H-M   'P 1'
_cell_length_a   6.54806752
_cell_length_b   8.55152507
_cell_length_c   8.55152523
_cell_angle_alpha   93.54588088
_cell_angle_beta   106.05538141
_cell_angle_gamma   106.05538807
_symmetry_Int_Tables_number   1
_chemical_formula_structural   NaFe3(PO4)3
_chemical_formula_sum   'Na2 Fe6 P6 O24'
_cell_volume   437.23453404
_cell_formula_units_Z   2
loop_
 _symmetry_equiv_pos_site_id
 _symmetry_equiv_pos_as_xyz
  1  'x, y, z'
loop_
 _atom_site_type_symbol
 _atom_site_label
 _atom_site_symmetry_multiplicity
 _atom_site_fract_x
 _atom_site_fract_y
 _atom_site_fract_z
 _atom_site_occupancy
  Na  Na0  1  0.750000  0.021818  0.978182  1
  Na  Na1  1  0.250000  0.978182  0.021818  1
  Fe  Fe2  1  0.874048  0.621292  0.943507  1
  Fe  Fe3  1  0.125952  0.378708  0.056493  1
  Fe  Fe4  1  0.250000  0.285884  0.714116  1
  Fe  Fe5  1  0.625952  0.056493  0.378708  1
  Fe  Fe6  1  0.750000  0.714116  0.285884  1
  Fe  Fe7  1  0.374048  0.943507  0.621292  1
  P  P8  1  0.887576  0.883526  0.662316  1
  P  P9  1  0.387576  0.662316  0.883526  1
  P  P10  1  0.112424  0.116474  0.337684  1
  P  P11  1  0.612424  0.337684  0.116474  1
  P  P12  1  0.250000  0.691676  0.308324  1
  P  P13  1  0.750000  0.308324  0.691676  1
  O  O14  1  0.237895  0.511909  0.268441  1
  O  O15  1  0.656021  0.472719  0.258937  1
  O  O16  1  0.343979  0.527281  0.741063  1
  O  O17  1  0.880881  0.983658  0.317260  1
  O  O18  1  0.619119  0.682740  0.016342  1
  O  O19  1  0.156021  0.258937  0.472719  1
  O  O20  1  0.762105  0.488091  0.731559  1
  O  O21  1  0.119119  0.016342  0.682740  1
  O  O22  1  0.099487  0.165184  0.164041  1
  O  O23  1  0.533709  0.195397  0.725298  1
  O  O24  1  0.966291  0.274702  0.804603  1
  O  O25  1  0.466291  0.804603  0.274702  1
  O  O26  1  0.843979  0.741063  0.527281  1
  O  O27  1  0.599487  0.164041  0.165184  1
  O  O28  1  0.400513  0.835959  0.834816  1
  O  O29  1  0.262105  0.731559  0.488091  1
  O  O30  1  0.302348  0.034835  0.388380  1
  O  O31  1  0.737895  0.268441  0.511909  1
  O  O32  1  0.033709  0.725298  0.195397  1
  O  O33  1  0.802348  0.388380  0.034835  1
  O  O34  1  0.900513  0.834816  0.835959  1
  O  O35  1  0.380881  0.317260  0.983658  1
  O  O36  1  0.697652  0.965165  0.611620  1
  O  O37  1  0.197652  0.611620  0.965165  1
