# generated using pymatgen
data_Rb2CoF6
_symmetry_space_group_name_H-M   'P 1'
_cell_length_a   6.09460546
_cell_length_b   6.09460597
_cell_length_c   6.09460600
_cell_angle_alpha   59.99999985
_cell_angle_beta   59.99999708
_cell_angle_gamma   60.00000082
_symmetry_Int_Tables_number   1
_chemical_formula_structural   Rb2CoF6
_chemical_formula_sum   'Rb2 Co1 F6'
_cell_volume   160.07439129
_cell_formula_units_Z   1
loop_
 _symmetry_equiv_pos_site_id
 _symmetry_equiv_pos_as_xyz
  1  'x, y, z'
loop_
 _atom_site_type_symbol
 _atom_site_label
 _atom_site_symmetry_multiplicity
 _atom_site_fract_x
 _atom_site_fract_y
 _atom_site_fract_z
 _atom_site_occupancy
  Rb  Rb0  1  0.750000  0.750000  0.750000  1
  Rb  Rb1  1  0.250000  0.250000  0.250000  1
  Co  Co2  1  0.000000  0.000000  0.000000  1
  F  F3  1  0.211015  0.788985  0.788985  1
  F  F4  1  0.211015  0.788985  0.211015  1
  F  F5  1  0.788985  0.211015  0.788985  1
  F  F6  1  0.788985  0.211015  0.211015  1
  F  F7  1  0.788985  0.788985  0.211015  1
  F  F8  1  0.211015  0.211015  0.788985  1
