# generated using pymatgen
data_Cr2(PO4)3
_symmetry_space_group_name_H-M   'P 1'
_cell_length_a   8.48419421
_cell_length_b   11.80911469
_cell_length_c   8.45950144
_cell_angle_alpha   90.00000000
_cell_angle_beta   90.00000000
_cell_angle_gamma   90.00000000
_symmetry_Int_Tables_number   1
_chemical_formula_structural   Cr2(PO4)3
_chemical_formula_sum   'Cr8 P12 O48'
_cell_volume   847.56440703
_cell_formula_units_Z   4
loop_
 _symmetry_equiv_pos_site_id
 _symmetry_equiv_pos_as_xyz
  1  'x, y, z'
loop_
 _atom_site_type_symbol
 _atom_site_label
 _atom_site_symmetry_multiplicity
 _atom_site_fract_x
 _atom_site_fract_y
 _atom_site_fract_z
 _atom_site_occupancy
  Cr  Cr0  1  0.249906  0.118852  0.467572  1
  Cr  Cr1  1  0.249906  0.881148  0.032428  1
  Cr  Cr2  1  0.250094  0.381148  0.967572  1
  Cr  Cr3  1  0.250094  0.618852  0.532428  1
  Cr  Cr4  1  0.749906  0.381148  0.467572  1
  Cr  Cr5  1  0.749906  0.618852  0.032428  1
  Cr  Cr6  1  0.750094  0.118852  0.967572  1
  Cr  Cr7  1  0.750094  0.881148  0.532428  1
  O  O8  1  0.068265  0.420097  0.850706  1
  O  O9  1  0.068265  0.579903  0.649294  1
  O  O10  1  0.073816  0.153592  0.593759  1
  O  O11  1  0.073816  0.846408  0.906241  1
  O  O12  1  0.141559  0.423694  0.150483  1
  O  O13  1  0.141559  0.576306  0.349517  1
  O  O14  1  0.147607  0.169906  0.282500  1
  O  O15  1  0.147607  0.830094  0.217500  1
  O  O16  1  0.167237  0.027618  0.059851  1
  O  O17  1  0.167237  0.972382  0.440149  1
  O  O18  1  0.180638  0.231854  0.994745  1
  O  O19  1  0.180638  0.768146  0.505255  1
  O  O20  1  0.319362  0.268146  0.494745  1
  O  O21  1  0.319362  0.731854  0.005255  1
  O  O22  1  0.332763  0.472382  0.559851  1
  O  O23  1  0.332763  0.527618  0.940149  1
  O  O24  1  0.352393  0.330094  0.782500  1
  O  O25  1  0.352393  0.669906  0.717500  1
  O  O26  1  0.358441  0.076306  0.650483  1
  O  O27  1  0.358441  0.923694  0.849517  1
  O  O28  1  0.426184  0.346408  0.093759  1
  O  O29  1  0.426184  0.653592  0.406241  1
  O  O30  1  0.431735  0.079903  0.350706  1
  O  O31  1  0.431735  0.920097  0.149294  1
  O  O32  1  0.568265  0.079903  0.850706  1
  O  O33  1  0.568265  0.920097  0.649294  1
  O  O34  1  0.573816  0.346408  0.593759  1
  O  O35  1  0.573816  0.653592  0.906241  1
  O  O36  1  0.641559  0.076306  0.150483  1
  O  O37  1  0.641559  0.923694  0.349517  1
  O  O38  1  0.647607  0.330094  0.282500  1
  O  O39  1  0.647607  0.669906  0.217500  1
  O  O40  1  0.667237  0.472382  0.059851  1
  O  O41  1  0.667237  0.527618  0.440149  1
  O  O42  1  0.680638  0.268146  0.994745  1
  O  O43  1  0.680638  0.731854  0.505255  1
  O  O44  1  0.819362  0.231854  0.494745  1
  O  O45  1  0.819362  0.768146  0.005255  1
  O  O46  1  0.832763  0.027618  0.559851  1
  O  O47  1  0.832763  0.972382  0.940149  1
  O  O48  1  0.852393  0.169906  0.782500  1
  O  O49  1  0.852393  0.830094  0.717500  1
  O  O50  1  0.858441  0.423694  0.650483  1
  O  O51  1  0.858441  0.576306  0.849517  1
  O  O52  1  0.926184  0.153592  0.093759  1
  O  O53  1  0.926184  0.846408  0.406241  1
  O  O54  1  0.931735  0.420097  0.350706  1
  O  O55  1  0.931735  0.579903  0.149294  1
  P  P56  1  0.033448  0.500000  0.250000  1
  P  P57  1  0.106689  0.144754  0.108542  1
  P  P58  1  0.106689  0.855246  0.391458  1
  P  P59  1  0.393311  0.355246  0.608542  1
  P  P60  1  0.393311  0.644754  0.891458  1
  P  P61  1  0.466552  0.000000  0.750000  1
  P  P62  1  0.533448  0.000000  0.250000  1
  P  P63  1  0.606689  0.355246  0.108542  1
  P  P64  1  0.606689  0.644754  0.391458  1
  P  P65  1  0.893311  0.144754  0.608542  1
  P  P66  1  0.893311  0.855246  0.891458  1
  P  P67  1  0.966552  0.500000  0.750000  1
