# generated using pymatgen
data_CoPO4
_symmetry_space_group_name_H-M   'P 1'
_cell_length_a   9.76528900
_cell_length_b   5.77991400
_cell_length_c   4.74862000
_cell_angle_alpha   90.00000000
_cell_angle_beta   90.00000000
_cell_angle_gamma   90.00000000
_symmetry_Int_Tables_number   1
_chemical_formula_structural   CoPO4
_chemical_formula_sum   'Co4 P4 O16'
_cell_volume   268.02412968
_cell_formula_units_Z   4
loop_
 _symmetry_equiv_pos_site_id
 _symmetry_equiv_pos_as_xyz
  1  'x, y, z'
loop_
 _atom_site_type_symbol
 _atom_site_label
 _atom_site_symmetry_multiplicity
 _atom_site_fract_x
 _atom_site_fract_y
 _atom_site_fract_z
 _atom_site_occupancy
  Co  Co0  1  0.217891  0.750000  0.438972  1
  Co  Co1  1  0.282109  0.250000  0.938972  1
  Co  Co2  1  0.717891  0.750000  0.061028  1
  Co  Co3  1  0.782109  0.250000  0.561028  1
  O  O4  1  0.055987  0.750000  0.658963  1
  O  O5  1  0.114400  0.250000  0.738345  1
  O  O6  1  0.172444  0.042527  0.267603  1
  O  O7  1  0.172444  0.457473  0.267603  1
  O  O8  1  0.327556  0.542527  0.767602  1
  O  O9  1  0.327556  0.957473  0.767602  1
  O  O10  1  0.385600  0.750000  0.238345  1
  O  O11  1  0.444012  0.250000  0.158963  1
  O  O12  1  0.555988  0.750000  0.841037  1
  O  O13  1  0.614400  0.250000  0.761655  1
  O  O14  1  0.672444  0.042527  0.232398  1
  O  O15  1  0.672444  0.457473  0.232398  1
  O  O16  1  0.827556  0.542527  0.732398  1
  O  O17  1  0.827556  0.957473  0.732398  1
  O  O18  1  0.885600  0.750000  0.261655  1
  O  O19  1  0.944012  0.250000  0.341036  1
  P  P20  1  0.096614  0.250000  0.418059  1
  P  P21  1  0.403386  0.750000  0.918059  1
  P  P22  1  0.596614  0.250000  0.081941  1
  P  P23  1  0.903386  0.750000  0.581941  1
