# generated using pymatgen
data_TiO2
_symmetry_space_group_name_H-M   'P 1'
_cell_length_a   3.74120000
_cell_length_b   6.37019067
_cell_length_c   6.52490000
_cell_angle_alpha   106.28070180
_cell_angle_beta   90.00000000
_cell_angle_gamma   107.07654205
_symmetry_Int_Tables_number   1
_chemical_formula_structural   TiO2
_chemical_formula_sum   'Ti4 O8'
_cell_volume   142.11067429
_cell_formula_units_Z   4
loop_
 _symmetry_equiv_pos_site_id
 _symmetry_equiv_pos_as_xyz
  1  'x, y, z'
loop_
 _atom_site_type_symbol
 _atom_site_label
 _atom_site_symmetry_multiplicity
 _atom_site_fract_x
 _atom_site_fract_y
 _atom_site_fract_z
 _atom_site_occupancy
  Ti  Ti0  1  0.197000  0.394000  0.292000  1
  Ti  Ti1  1  0.901000  0.802000  0.295000  1
  Ti  Ti2  1  0.803000  0.606000  0.708000  1
  Ti  Ti3  1  0.099000  0.198000  0.705000  1
  O  O4  1  0.940000  0.880000  0.629000  1
  O  O5  1  0.362000  0.724000  0.293000  1
  O  O6  1  0.868000  0.736000  0.996000  1
  O  O7  1  0.060000  0.120000  0.371000  1
  O  O8  1  0.264000  0.528000  0.653000  1
  O  O9  1  0.132000  0.264000  0.004000  1
  O  O10  1  0.736000  0.472000  0.347000  1
  O  O11  1  0.638000  0.276000  0.707000  1
