# generated using pymatgen
data_Fe7(PO4)6
_symmetry_space_group_name_H-M   'P 1'
_cell_length_a   6.49548140
_cell_length_b   7.91489559
_cell_length_c   9.44128722
_cell_angle_alpha   104.54531162
_cell_angle_beta   108.43088003
_cell_angle_gamma   100.72522424
_symmetry_Int_Tables_number   1
_chemical_formula_structural   Fe7(PO4)6
_chemical_formula_sum   'Fe7 P6 O24'
_cell_volume   426.69376532
_cell_formula_units_Z   1
loop_
 _symmetry_equiv_pos_site_id
 _symmetry_equiv_pos_as_xyz
  1  'x, y, z'
loop_
 _atom_site_type_symbol
 _atom_site_label
 _atom_site_symmetry_multiplicity
 _atom_site_fract_x
 _atom_site_fract_y
 _atom_site_fract_z
 _atom_site_occupancy
  Fe  Fe0  1  0.039452  0.721420  0.023480  1
  Fe  Fe1  1  0.960548  0.278580  0.976520  1
  Fe  Fe2  1  0.394607  0.453463  0.615091  1
  Fe  Fe3  1  0.605393  0.546537  0.384909  1
  Fe  Fe4  1  0.282784  0.804513  0.790615  1
  Fe  Fe5  1  0.717216  0.195487  0.209385  1
  Fe  Fe6  1  0.000000  0.000000  0.500000  1
  P  P7  1  0.603344  0.774717  0.129062  1
  P  P8  1  0.396656  0.225283  0.870938  1
  P  P9  1  0.083717  0.589716  0.330772  1
  P  P10  1  0.916283  0.410284  0.669228  1
  P  P11  1  0.769444  0.857868  0.728326  1
  P  P12  1  0.230556  0.142132  0.271674  1
  O  O13  1  0.378254  0.781564  0.005896  1
  O  O14  1  0.621746  0.218436  0.994104  1
  O  O15  1  0.751222  0.727198  0.037178  1
  O  O16  1  0.248778  0.272802  0.962822  1
  O  O17  1  0.545197  0.638953  0.209981  1
  O  O18  1  0.454803  0.361047  0.790019  1
  O  O19  1  0.725403  0.969022  0.261110  1
  O  O20  1  0.274597  0.030978  0.738890  1
  O  O21  1  0.057122  0.547546  0.154223  1
  O  O22  1  0.942878  0.452454  0.845777  1
  O  O23  1  0.301692  0.542382  0.416897  1
  O  O24  1  0.698308  0.457618  0.583103  1
  O  O25  1  0.092586  0.784711  0.413191  1
  O  O26  1  0.907414  0.215289  0.586809  1
  O  O27  1  0.873305  0.458973  0.335938  1
  O  O28  1  0.126695  0.541027  0.664062  1
  O  O29  1  0.545111  0.741692  0.726718  1
  O  O30  1  0.454889  0.258308  0.273282  1
  O  O31  1  0.790769  0.058709  0.795310  1
  O  O32  1  0.209231  0.941291  0.204690  1
  O  O33  1  0.768060  0.810967  0.556414  1
  O  O34  1  0.231940  0.189033  0.443586  1
  O  O35  1  0.977662  0.811392  0.833564  1
  O  O36  1  0.022338  0.188608  0.166436  1
