# generated using pymatgen
data_NaSbF6
_symmetry_space_group_name_H-M   'P 1'
_cell_length_a   5.78696189
_cell_length_b   5.78696189
_cell_length_c   5.78696190
_cell_angle_alpha   59.99999997
_cell_angle_beta   59.99999997
_cell_angle_gamma   60.00000001
_symmetry_Int_Tables_number   1
_chemical_formula_structural   NaSbF6
_chemical_formula_sum   'Na1 Sb1 F6'
_cell_volume   137.03669325
_cell_formula_units_Z   1
loop_
 _symmetry_equiv_pos_site_id
 _symmetry_equiv_pos_as_xyz
  1  'x, y, z'
loop_
 _atom_site_type_symbol
 _atom_site_label
 _atom_site_symmetry_multiplicity
 _atom_site_fract_x
 _atom_site_fract_y
 _atom_site_fract_z
 _atom_site_occupancy
  F  F0  1  0.226000  0.774000  0.774000  1
  F  F1  1  0.226000  0.774000  0.226000  1
  F  F2  1  0.774000  0.226000  0.226000  1
  F  F3  1  0.774000  0.774000  0.226000  1
  F  F4  1  0.226000  0.226000  0.774000  1
  F  F5  1  0.774000  0.226000  0.774000  1
  Na  Na6  1  0.500000  0.500000  0.500000  1
  Sb  Sb7  1  0.000000  0.000000  0.000000  1
