# generated using pymatgen
data_Cr4P9O32
_symmetry_space_group_name_H-M   'P 1'
_cell_length_a   13.79251516
_cell_length_b   13.79251516
_cell_length_c   6.27890499
_cell_angle_alpha   90.00000000
_cell_angle_beta   90.00000000
_cell_angle_gamma   90.00000000
_symmetry_Int_Tables_number   1
_chemical_formula_structural   Cr4P9O32
_chemical_formula_sum   'Cr8 P18 O64'
_cell_volume   1194.45791192
_cell_formula_units_Z   2
loop_
 _symmetry_equiv_pos_site_id
 _symmetry_equiv_pos_as_xyz
  1  'x, y, z'
loop_
 _atom_site_type_symbol
 _atom_site_label
 _atom_site_symmetry_multiplicity
 _atom_site_fract_x
 _atom_site_fract_y
 _atom_site_fract_z
 _atom_site_occupancy
  Cr  Cr0  1  0.695975  0.616169  0.122401  1
  Cr  Cr1  1  0.383831  0.695975  0.877599  1
  Cr  Cr2  1  0.804025  0.116169  0.377599  1
  Cr  Cr3  1  0.116169  0.195975  0.622401  1
  Cr  Cr4  1  0.883831  0.804025  0.622401  1
  Cr  Cr5  1  0.195975  0.883831  0.377599  1
  Cr  Cr6  1  0.304024  0.383831  0.122401  1
  Cr  Cr7  1  0.616169  0.304024  0.877599  1
  P  P8  1  0.748809  0.607528  0.632521  1
  P  P9  1  0.303215  0.060991  0.612839  1
  P  P10  1  0.939009  0.303215  0.387161  1
  P  P11  1  0.607528  0.251191  0.367479  1
  P  P12  1  0.696785  0.939009  0.612839  1
  P  P13  1  0.560991  0.803215  0.112839  1
  P  P14  1  0.060991  0.696785  0.387161  1
  P  P15  1  0.892472  0.751191  0.132521  1
  P  P16  1  0.439009  0.196785  0.112839  1
  P  P17  1  0.751191  0.107528  0.867479  1
  P  P18  1  0.392473  0.748809  0.367479  1
  P  P19  1  0.500000  0.500000  0.000000  1
  P  P20  1  0.248809  0.892472  0.867479  1
  P  P21  1  0.251191  0.392473  0.632521  1
  P  P22  1  0.803215  0.439009  0.887161  1
  P  P23  1  0.000000  0.000000  0.500000  1
  P  P24  1  0.196785  0.560991  0.887161  1
  P  P25  1  0.107528  0.248809  0.132521  1
  O  O26  1  0.818151  0.134350  0.681026  1
  O  O27  1  0.134350  0.181849  0.318974  1
  O  O28  1  0.002596  0.720796  0.168889  1
  O  O29  1  0.842773  0.246084  0.360036  1
  O  O30  1  0.503296  0.747141  0.934690  1
  O  O31  1  0.908745  0.428761  0.921180  1
  O  O32  1  0.752859  0.996704  0.434690  1
  O  O33  1  0.064973  0.066765  0.639098  1
  O  O34  1  0.564973  0.433235  0.860902  1
  O  O35  1  0.066765  0.935027  0.360902  1
  O  O36  1  0.747141  0.496704  0.065310  1
  O  O37  1  0.339920  0.829428  0.876972  1
  O  O38  1  0.408745  0.071239  0.578820  1
  O  O39  1  0.591255  0.928761  0.578820  1
  O  O40  1  0.365650  0.681849  0.181027  1
  O  O41  1  0.393734  0.693354  0.577966  1
  O  O42  1  0.433235  0.435027  0.139098  1
  O  O43  1  0.496704  0.252859  0.934690  1
  O  O44  1  0.435027  0.566765  0.860902  1
  O  O45  1  0.893734  0.806646  0.922034  1
  O  O46  1  0.170572  0.339920  0.123028  1
  O  O47  1  0.071239  0.591255  0.421180  1
  O  O48  1  0.279204  0.002596  0.831111  1
  O  O49  1  0.996704  0.247141  0.565310  1
  O  O50  1  0.839920  0.670572  0.623028  1
  O  O51  1  0.342773  0.253916  0.139964  1
  O  O52  1  0.181849  0.865650  0.681026  1
  O  O53  1  0.829428  0.660080  0.123028  1
  O  O54  1  0.606266  0.306646  0.577966  1
  O  O55  1  0.933235  0.064973  0.360902  1
  O  O56  1  0.571239  0.908745  0.078820  1
  O  O57  1  0.003296  0.752859  0.565310  1
  O  O58  1  0.091255  0.571239  0.921180  1
  O  O59  1  0.106266  0.193354  0.922034  1
  O  O60  1  0.753916  0.842773  0.639964  1
  O  O61  1  0.157227  0.753916  0.360036  1
  O  O62  1  0.720796  0.997404  0.831111  1
  O  O63  1  0.634350  0.318151  0.181027  1
  O  O64  1  0.253916  0.657227  0.860036  1
  O  O65  1  0.657227  0.746084  0.139964  1
  O  O66  1  0.670572  0.160080  0.376972  1
  O  O67  1  0.160080  0.329428  0.623028  1
  O  O68  1  0.497404  0.220796  0.331111  1
  O  O69  1  0.660080  0.170572  0.876972  1
  O  O70  1  0.928761  0.408745  0.421180  1
  O  O71  1  0.306646  0.393734  0.422034  1
  O  O72  1  0.566765  0.564973  0.139098  1
  O  O73  1  0.865650  0.818151  0.318974  1
  O  O74  1  0.746084  0.342773  0.860036  1
  O  O75  1  0.246084  0.157227  0.639964  1
  O  O76  1  0.779204  0.497404  0.668889  1
  O  O77  1  0.428761  0.091255  0.078820  1
  O  O78  1  0.806646  0.106266  0.077966  1
  O  O79  1  0.997404  0.279204  0.168889  1
  O  O80  1  0.502596  0.779204  0.331111  1
  O  O81  1  0.247141  0.003296  0.434690  1
  O  O82  1  0.252859  0.503296  0.065310  1
  O  O83  1  0.318151  0.365650  0.818974  1
  O  O84  1  0.681849  0.634350  0.818974  1
  O  O85  1  0.220796  0.502596  0.668889  1
  O  O86  1  0.935027  0.933235  0.639098  1
  O  O87  1  0.329428  0.839920  0.376972  1
  O  O88  1  0.193354  0.893734  0.077966  1
  O  O89  1  0.693354  0.606266  0.422034  1
