# generated using pymatgen
data_ReO3
_symmetry_space_group_name_H-M   'P 1'
_cell_length_a   3.74150000
_cell_length_b   5.29680000
_cell_length_c   5.29680000
_cell_angle_alpha   90.00000000
_cell_angle_beta   90.00000000
_cell_angle_gamma   90.00000000
_symmetry_Int_Tables_number   1
_chemical_formula_structural   ReO3
_chemical_formula_sum   'Re2 O6'
_cell_volume   104.97186163
_cell_formula_units_Z   2
loop_
 _symmetry_equiv_pos_site_id
 _symmetry_equiv_pos_as_xyz
  1  'x, y, z'
loop_
 _atom_site_type_symbol
 _atom_site_label
 _atom_site_symmetry_multiplicity
 _atom_site_fract_x
 _atom_site_fract_y
 _atom_site_fract_z
 _atom_site_occupancy
  O  O0  1  0.500000  0.236800  0.736800  1
  O  O1  1  0.500000  0.736800  0.763200  1
  O  O2  1  0.500000  0.263200  0.236800  1
  Re  Re3  1  0.500000  0.500000  0.500000  1
  Re  Re4  1  0.500000  0.000000  0.000000  1
  O  O5  1  0.500000  0.763200  0.263200  1
  O  O6  1  0.000000  0.500000  0.500000  1
  O  O7  1  0.000000  0.000000  0.000000  1
