# generated using pymatgen
data_Mo15Se19
_symmetry_space_group_name_H-M   'P 1'
_cell_length_a   20.35998625
_cell_length_b   20.35998630
_cell_length_c   20.35998600
_cell_angle_alpha   26.98093052
_cell_angle_beta   26.98093027
_cell_angle_gamma   26.98093084
_symmetry_Int_Tables_number   1
_chemical_formula_structural   Mo15Se19
_chemical_formula_sum   'Mo30 Se38'
_cell_volume   1532.26474643
_cell_formula_units_Z   2
loop_
 _symmetry_equiv_pos_site_id
 _symmetry_equiv_pos_as_xyz
  1  'x, y, z'
loop_
 _atom_site_type_symbol
 _atom_site_label
 _atom_site_symmetry_multiplicity
 _atom_site_fract_x
 _atom_site_fract_y
 _atom_site_fract_z
 _atom_site_occupancy
  Mo  Mo0  1  0.913000  0.750000  0.587000  1
  Mo  Mo1  1  0.192550  0.998190  0.869680  1
  Mo  Mo2  1  0.959620  0.632390  0.775320  1
  Mo  Mo3  1  0.307450  0.630320  0.501810  1
  Mo  Mo4  1  0.630320  0.501810  0.307450  1
  Mo  Mo5  1  0.001810  0.130320  0.807450  1
  Mo  Mo6  1  0.692550  0.369680  0.498190  1
  Mo  Mo7  1  0.250000  0.413000  0.087000  1
  Mo  Mo8  1  0.459620  0.275320  0.132390  1
  Mo  Mo9  1  0.807450  0.001810  0.130320  1
  Mo  Mo10  1  0.367610  0.224680  0.040380  1
  Mo  Mo11  1  0.130320  0.807450  0.001810  1
  Mo  Mo12  1  0.750000  0.587000  0.913000  1
  Mo  Mo13  1  0.087000  0.250000  0.413000  1
  Mo  Mo14  1  0.775320  0.959620  0.632390  1
  Mo  Mo15  1  0.869680  0.192550  0.998190  1
  Mo  Mo16  1  0.501810  0.307450  0.630320  1
  Mo  Mo17  1  0.413000  0.087000  0.250000  1
  Mo  Mo18  1  0.132390  0.459620  0.275320  1
  Mo  Mo19  1  0.275320  0.132390  0.459620  1
  Mo  Mo20  1  0.632390  0.775320  0.959620  1
  Mo  Mo21  1  0.867610  0.540380  0.724680  1
  Mo  Mo22  1  0.540380  0.724680  0.867610  1
  Mo  Mo23  1  0.369680  0.498190  0.692550  1
  Mo  Mo24  1  0.998190  0.869680  0.192550  1
  Mo  Mo25  1  0.040380  0.367610  0.224680  1
  Mo  Mo26  1  0.224680  0.040380  0.367610  1
  Mo  Mo27  1  0.587000  0.913000  0.750000  1
  Mo  Mo28  1  0.498190  0.692550  0.369680  1
  Mo  Mo29  1  0.724680  0.867610  0.540380  1
  Se  Se30  1  0.684820  0.055940  0.306850  1
  Se  Se31  1  0.444060  0.815180  0.193150  1
  Se  Se32  1  0.806850  0.555940  0.184820  1
  Se  Se33  1  0.456320  0.081740  0.817040  1
  Se  Se34  1  0.193150  0.444060  0.815180  1
  Se  Se35  1  0.555940  0.184820  0.806850  1
  Se  Se36  1  0.176890  0.176890  0.176890  1
  Se  Se37  1  0.306850  0.684820  0.055940  1
  Se  Se38  1  0.418260  0.043680  0.682960  1
  Se  Se39  1  0.543680  0.918260  0.182960  1
  Se  Se40  1  0.682960  0.418260  0.043680  1
  Se  Se41  1  0.750000  0.064100  0.435900  1
  Se  Se42  1  0.944060  0.693150  0.315180  1
  Se  Se43  1  0.315180  0.944060  0.693150  1
  Se  Se44  1  0.676890  0.676890  0.676890  1
  Se  Se45  1  0.055940  0.306850  0.684820  1
  Se  Se46  1  0.182960  0.543680  0.918260  1
  Se  Se47  1  0.823110  0.823110  0.823110  1
  Se  Se48  1  0.064100  0.435900  0.750000  1
  Se  Se49  1  0.054230  0.054230  0.054230  1
  Se  Se50  1  0.815180  0.193150  0.444060  1
  Se  Se51  1  0.184820  0.806850  0.555940  1
  Se  Se52  1  0.081740  0.817040  0.456320  1
  Se  Se53  1  0.817040  0.456320  0.081740  1
  Se  Se54  1  0.250000  0.935900  0.564100  1
  Se  Se55  1  0.445770  0.445770  0.445770  1
  Se  Se56  1  0.693150  0.315180  0.944060  1
  Se  Se57  1  0.564100  0.250000  0.935900  1
  Se  Se58  1  0.043680  0.682960  0.418260  1
  Se  Se59  1  0.435900  0.750000  0.064100  1
  Se  Se60  1  0.918260  0.182960  0.543680  1
  Se  Se61  1  0.323110  0.323110  0.323110  1
  Se  Se62  1  0.317040  0.581740  0.956320  1
  Se  Se63  1  0.581740  0.956320  0.317040  1
  Se  Se64  1  0.554230  0.554230  0.554230  1
  Se  Se65  1  0.935900  0.564100  0.250000  1
  Se  Se66  1  0.956320  0.317040  0.581740  1
  Se  Se67  1  0.945770  0.945770  0.945770  1
