# generated using pymatgen
data_CoPO4
_symmetry_space_group_name_H-M   'P 1'
_cell_length_a   5.26453703
_cell_length_b   10.29047279
_cell_length_c   7.10602153
_cell_angle_alpha   90.00000000
_cell_angle_beta   89.32881913
_cell_angle_gamma   90.00000000
_symmetry_Int_Tables_number   1
_chemical_formula_structural   CoPO4
_chemical_formula_sum   'Co4 P4 O16'
_cell_volume   384.93928354
_cell_formula_units_Z   4
loop_
 _symmetry_equiv_pos_site_id
 _symmetry_equiv_pos_as_xyz
  1  'x, y, z'
loop_
 _atom_site_type_symbol
 _atom_site_label
 _atom_site_symmetry_multiplicity
 _atom_site_fract_x
 _atom_site_fract_y
 _atom_site_fract_z
 _atom_site_occupancy
  Co  Co0  1  0.803524  0.670597  0.024938  1
  Co  Co1  1  0.303524  0.829403  0.524938  1
  Co  Co2  1  0.696476  0.170597  0.475062  1
  Co  Co3  1  0.196476  0.329403  0.975062  1
  P  P4  1  0.695389  0.405295  0.208124  1
  P  P5  1  0.804611  0.905295  0.291876  1
  P  P6  1  0.304611  0.594705  0.791876  1
  P  P7  1  0.195389  0.094705  0.708124  1
  O  O8  1  0.358758  0.149565  0.542156  1
  O  O9  1  0.735607  0.553899  0.224955  1
  O  O10  1  0.767252  0.340303  0.396547  1
  O  O11  1  0.411977  0.374978  0.168945  1
  O  O12  1  0.235607  0.946101  0.724955  1
  O  O13  1  0.088023  0.874978  0.331055  1
  O  O14  1  0.588023  0.625022  0.831055  1
  O  O15  1  0.267252  0.159697  0.896547  1
  O  O16  1  0.858758  0.350435  0.042156  1
  O  O17  1  0.232748  0.659697  0.603453  1
  O  O18  1  0.641242  0.850435  0.457844  1
  O  O19  1  0.264393  0.446101  0.775045  1
  O  O20  1  0.911977  0.125022  0.668945  1
  O  O21  1  0.141242  0.649565  0.957844  1
  O  O22  1  0.764393  0.053899  0.275045  1
  O  O23  1  0.732748  0.840303  0.103453  1
