# generated using pymatgen
data_CrP2O7
_symmetry_space_group_name_H-M   'P 1'
_cell_length_a   7.23552159
_cell_length_b   7.97548500
_cell_length_c   9.34088800
_cell_angle_alpha   90.00000000
_cell_angle_beta   110.61208210
_cell_angle_gamma   90.00000000
_symmetry_Int_Tables_number   1
_chemical_formula_structural   CrP2O7
_chemical_formula_sum   'Cr4 P8 O28'
_cell_volume   504.52669370
_cell_formula_units_Z   4
loop_
 _symmetry_equiv_pos_site_id
 _symmetry_equiv_pos_as_xyz
  1  'x, y, z'
loop_
 _atom_site_type_symbol
 _atom_site_label
 _atom_site_symmetry_multiplicity
 _atom_site_fract_x
 _atom_site_fract_y
 _atom_site_fract_z
 _atom_site_occupancy
  Cr  Cr0  1  0.270907  0.492089  0.746434  1
  Cr  Cr1  1  0.270907  0.007911  0.246434  1
  Cr  Cr2  1  0.729093  0.992089  0.753566  1
  Cr  Cr3  1  0.729093  0.507911  0.253566  1
  O  O4  1  0.008727  0.585050  0.655146  1
  O  O5  1  0.195895  0.357132  0.888141  1
  O  O6  1  0.110749  0.851627  0.551727  1
  O  O7  1  0.325097  0.680784  0.888116  1
  O  O8  1  0.194127  0.308193  0.610867  1
  O  O9  1  0.008727  0.914950  0.155146  1
  O  O10  1  0.195895  0.142868  0.388141  1
  O  O11  1  0.357003  0.614899  0.603080  1
  O  O12  1  0.110749  0.648373  0.051727  1
  O  O13  1  0.325097  0.819216  0.388116  1
  O  O14  1  0.194127  0.191807  0.110867  1
  O  O15  1  0.533306  0.418254  0.834658  1
  O  O16  1  0.466694  0.918254  0.665342  1
  O  O17  1  0.642997  0.114899  0.896920  1
  O  O18  1  0.357003  0.885101  0.103080  1
  O  O19  1  0.533306  0.081746  0.334658  1
  O  O20  1  0.466694  0.581746  0.165342  1
  O  O21  1  0.805873  0.808193  0.889133  1
  O  O22  1  0.674903  0.180784  0.611884  1
  O  O23  1  0.889251  0.351627  0.948273  1
  O  O24  1  0.642997  0.385101  0.396920  1
  O  O25  1  0.804105  0.857132  0.611859  1
  O  O26  1  0.991273  0.085050  0.844854  1
  O  O27  1  0.805873  0.691807  0.389133  1
  O  O28  1  0.674903  0.319216  0.111884  1
  O  O29  1  0.889251  0.148373  0.448273  1
  O  O30  1  0.804105  0.642868  0.111859  1
  O  O31  1  0.991273  0.414950  0.344854  1
  P  P32  1  0.073367  0.239696  0.945213  1
  P  P33  1  0.073367  0.260304  0.445213  1
  P  P34  1  0.324607  0.797974  0.550842  1
  P  P35  1  0.675393  0.297974  0.949158  1
  P  P36  1  0.324607  0.702026  0.050842  1
  P  P37  1  0.675393  0.202026  0.449158  1
  P  P38  1  0.926633  0.739696  0.554787  1
  P  P39  1  0.926633  0.760304  0.054787  1
