# generated using pymatgen
data_CuPO4
_symmetry_space_group_name_H-M   'P 1'
_cell_length_a   7.08974321
_cell_length_b   8.43026700
_cell_length_c   4.79167100
_cell_angle_alpha   90.00000000
_cell_angle_beta   99.35736480
_cell_angle_gamma   90.00000000
_symmetry_Int_Tables_number   1
_chemical_formula_structural   CuPO4
_chemical_formula_sum   'Cu4 P4 O16'
_cell_volume   282.57976523
_cell_formula_units_Z   4
loop_
 _symmetry_equiv_pos_site_id
 _symmetry_equiv_pos_as_xyz
  1  'x, y, z'
loop_
 _atom_site_type_symbol
 _atom_site_label
 _atom_site_symmetry_multiplicity
 _atom_site_fract_x
 _atom_site_fract_y
 _atom_site_fract_z
 _atom_site_occupancy
  Cu  Cu0  1  0.500000  0.500000  0.500000  1
  Cu  Cu1  1  0.000000  0.000000  0.000000  1
  Cu  Cu2  1  0.000000  0.500000  0.500000  1
  Cu  Cu3  1  0.500000  0.000000  0.000000  1
  P  P4  1  0.196551  0.325817  0.052924  1
  P  P5  1  0.696551  0.174183  0.552924  1
  P  P6  1  0.303449  0.825817  0.447076  1
  P  P7  1  0.803449  0.674183  0.947076  1
  O  O8  1  0.026634  0.367175  0.201438  1
  O  O9  1  0.473366  0.867175  0.298562  1
  O  O10  1  0.396823  0.387230  0.183006  1
  O  O11  1  0.173520  0.376997  0.738174  1
  O  O12  1  0.326480  0.876997  0.761826  1
  O  O13  1  0.788601  0.860061  0.935200  1
  O  O14  1  0.896823  0.112770  0.683006  1
  O  O15  1  0.211399  0.139939  0.064800  1
  O  O16  1  0.673520  0.123003  0.238174  1
  O  O17  1  0.973366  0.632825  0.798562  1
  O  O18  1  0.711399  0.360061  0.564800  1
  O  O19  1  0.826480  0.623003  0.261826  1
  O  O20  1  0.526634  0.132825  0.701438  1
  O  O21  1  0.603177  0.612770  0.816994  1
  O  O22  1  0.288601  0.639939  0.435200  1
  O  O23  1  0.103177  0.887230  0.316994  1
