# generated using pymatgen
data_Cs2MoCl6
_symmetry_space_group_name_H-M   'P 1'
_cell_length_a   7.22104576
_cell_length_b   7.22104558
_cell_length_c   7.22104500
_cell_angle_alpha   59.99999805
_cell_angle_beta   59.99999890
_cell_angle_gamma   60.00000107
_symmetry_Int_Tables_number   1
_chemical_formula_structural   Cs2MoCl6
_chemical_formula_sum   'Cs2 Mo1 Cl6'
_cell_volume   266.24731098
_cell_formula_units_Z   1
loop_
 _symmetry_equiv_pos_site_id
 _symmetry_equiv_pos_as_xyz
  1  'x, y, z'
loop_
 _atom_site_type_symbol
 _atom_site_label
 _atom_site_symmetry_multiplicity
 _atom_site_fract_x
 _atom_site_fract_y
 _atom_site_fract_z
 _atom_site_occupancy
  Cs  Cs0  1  0.250000  0.250000  0.250000  1
  Cs  Cs1  1  0.750000  0.750000  0.750000  1
  Mo  Mo2  1  0.000000  0.000000  0.000000  1
  Cl  Cl3  1  0.230600  0.769400  0.769400  1
  Cl  Cl4  1  0.769400  0.769400  0.230600  1
  Cl  Cl5  1  0.769400  0.230600  0.769400  1
  Cl  Cl6  1  0.769400  0.230600  0.230600  1
  Cl  Cl7  1  0.230600  0.230600  0.769400  1
  Cl  Cl8  1  0.230600  0.769400  0.230600  1
