# generated using pymatgen
data_Cr2(PO4)3
_symmetry_space_group_name_H-M   'P 1'
_cell_length_a   8.53982451
_cell_length_b   8.46567300
_cell_length_c   12.04197700
_cell_angle_alpha   90.00000000
_cell_angle_beta   90.81950190
_cell_angle_gamma   90.00000000
_symmetry_Int_Tables_number   1
_chemical_formula_structural   Cr2(PO4)3
_chemical_formula_sum   'Cr8 P12 O48'
_cell_volume   870.49003514
_cell_formula_units_Z   4
loop_
 _symmetry_equiv_pos_site_id
 _symmetry_equiv_pos_as_xyz
  1  'x, y, z'
loop_
 _atom_site_type_symbol
 _atom_site_label
 _atom_site_symmetry_multiplicity
 _atom_site_fract_x
 _atom_site_fract_y
 _atom_site_fract_z
 _atom_site_occupancy
  Cr  Cr0  1  0.223179  0.500949  0.140026  1
  Cr  Cr1  1  0.223179  0.499051  0.640026  1
  Cr  Cr2  1  0.277232  0.000933  0.360701  1
  Cr  Cr3  1  0.277232  0.999067  0.860701  1
  Cr  Cr4  1  0.722768  0.000933  0.139299  1
  Cr  Cr5  1  0.722768  0.999067  0.639299  1
  Cr  Cr6  1  0.776821  0.500949  0.359974  1
  Cr  Cr7  1  0.776821  0.499051  0.859974  1
  O  O8  1  0.032987  0.394911  0.108758  1
  O  O9  1  0.032987  0.605089  0.608758  1
  O  O10  1  0.089612  0.892341  0.332826  1
  O  O11  1  0.089612  0.107659  0.832826  1
  O  O12  1  0.112533  0.684523  0.181498  1
  O  O13  1  0.112533  0.315477  0.681498  1
  O  O14  1  0.159852  0.178502  0.399325  1
  O  O15  1  0.159852  0.821498  0.899325  1
  O  O16  1  0.223491  0.425713  0.287794  1
  O  O17  1  0.270093  0.067105  0.008418  1
  O  O18  1  0.228588  0.432220  0.492223  1
  O  O19  1  0.223491  0.574287  0.787794  1
  O  O20  1  0.270093  0.932895  0.508418  1
  O  O21  1  0.228588  0.567780  0.992223  1
  O  O22  1  0.280447  0.076016  0.212954  1
  O  O23  1  0.280447  0.923984  0.712954  1
  O  O24  1  0.338700  0.322739  0.099680  1
  O  O25  1  0.338700  0.677261  0.599680  1
  O  O26  1  0.388404  0.817735  0.319337  1
  O  O27  1  0.388404  0.182265  0.819337  1
  O  O28  1  0.410356  0.609868  0.167203  1
  O  O29  1  0.410356  0.390132  0.667203  1
  O  O30  1  0.466209  0.108063  0.394460  1
  O  O31  1  0.466209  0.891937  0.894460  1
  O  O32  1  0.533791  0.108063  0.105540  1
  O  O33  1  0.533791  0.891937  0.605540  1
  O  O34  1  0.589644  0.609868  0.332797  1
  O  O35  1  0.589644  0.390132  0.832797  1
  O  O36  1  0.611596  0.817735  0.180663  1
  O  O37  1  0.611596  0.182265  0.680663  1
  O  O38  1  0.661300  0.322739  0.400320  1
  O  O39  1  0.661300  0.677261  0.900320  1
  O  O40  1  0.719553  0.076016  0.287046  1
  O  O41  1  0.719553  0.923984  0.787046  1
  O  O42  1  0.771412  0.432220  0.007777  1
  O  O43  1  0.729907  0.067105  0.491582  1
  O  O44  1  0.776509  0.425713  0.212206  1
  O  O45  1  0.771412  0.567780  0.507777  1
  O  O46  1  0.729907  0.932895  0.991582  1
  O  O47  1  0.776509  0.574287  0.712206  1
  O  O48  1  0.840148  0.178502  0.100675  1
  O  O49  1  0.840148  0.821498  0.600675  1
  O  O50  1  0.887467  0.684523  0.318502  1
  O  O51  1  0.887467  0.315477  0.818502  1
  O  O52  1  0.910388  0.892341  0.167174  1
  O  O53  1  0.910388  0.107659  0.667174  1
  O  O54  1  0.967013  0.394911  0.391242  1
  O  O55  1  0.967013  0.605089  0.891242  1
  P  P56  1  0.000000  0.214540  0.750000  1
  P  P57  1  0.143208  0.359360  0.391180  1
  P  P58  1  0.143208  0.640640  0.891180  1
  P  P59  1  0.357312  0.141973  0.108127  1
  P  P60  1  0.357312  0.858027  0.608127  1
  P  P61  1  0.500000  0.716848  0.250000  1
  P  P62  1  0.500000  0.283152  0.750000  1
  P  P63  1  0.642688  0.141973  0.391873  1
  P  P64  1  0.642688  0.858027  0.891873  1
  P  P65  1  0.856792  0.359360  0.108820  1
  P  P66  1  0.856792  0.640640  0.608820  1
  P  P67  1  0.000000  0.785460  0.250000  1
