# generated using pymatgen
data_Mo15Se19
_symmetry_space_group_name_H-M   'P 1'
_cell_length_a   9.45000000
_cell_length_b   9.44999994
_cell_length_c   19.60000000
_cell_angle_alpha   90.00000000
_cell_angle_beta   90.00000000
_cell_angle_gamma   120.00000020
_symmetry_Int_Tables_number   1
_chemical_formula_structural   Mo15Se19
_chemical_formula_sum   'Mo30 Se38'
_cell_volume   1515.82936680
_cell_formula_units_Z   2
loop_
 _symmetry_equiv_pos_site_id
 _symmetry_equiv_pos_as_xyz
  1  'x, y, z'
loop_
 _atom_site_type_symbol
 _atom_site_label
 _atom_site_symmetry_multiplicity
 _atom_site_fract_x
 _atom_site_fract_y
 _atom_site_fract_z
 _atom_site_occupancy
  Mo  Mo0  1  0.688500  0.507200  0.132700  1
  Mo  Mo1  1  0.161500  0.511100  0.750000  1
  Mo  Mo2  1  0.020500  0.173100  0.560700  1
  Mo  Mo3  1  0.826900  0.847400  0.560700  1
  Mo  Mo4  1  0.688500  0.507200  0.367300  1
  Mo  Mo5  1  0.818700  0.311500  0.367300  1
  Mo  Mo6  1  0.492800  0.181300  0.132700  1
  Mo  Mo7  1  0.311500  0.492800  0.632700  1
  Mo  Mo8  1  0.511100  0.349600  0.250000  1
  Mo  Mo9  1  0.152600  0.979500  0.560700  1
  Mo  Mo10  1  0.488900  0.650400  0.750000  1
  Mo  Mo11  1  0.650400  0.161500  0.250000  1
  Mo  Mo12  1  0.826900  0.847400  0.939300  1
  Mo  Mo13  1  0.492800  0.181300  0.367300  1
  Mo  Mo14  1  0.847400  0.020500  0.439300  1
  Mo  Mo15  1  0.181300  0.688500  0.867300  1
  Mo  Mo16  1  0.847400  0.020500  0.060700  1
  Mo  Mo17  1  0.181300  0.688500  0.632700  1
  Mo  Mo18  1  0.979500  0.826900  0.439300  1
  Mo  Mo19  1  0.507200  0.818700  0.867300  1
  Mo  Mo20  1  0.173100  0.152600  0.439300  1
  Mo  Mo21  1  0.152600  0.979500  0.939300  1
  Mo  Mo22  1  0.311500  0.492800  0.867300  1
  Mo  Mo23  1  0.020500  0.173100  0.939300  1
  Mo  Mo24  1  0.818700  0.311500  0.132700  1
  Mo  Mo25  1  0.979500  0.826900  0.060700  1
  Mo  Mo26  1  0.507200  0.818700  0.632700  1
  Mo  Mo27  1  0.349600  0.838500  0.750000  1
  Mo  Mo28  1  0.173100  0.152600  0.060700  1
  Mo  Mo29  1  0.838500  0.488900  0.250000  1
  Se  Se30  1  0.001300  0.625600  0.355900  1
  Se  Se31  1  0.037800  0.330000  0.047300  1
  Se  Se32  1  0.375700  0.001300  0.644100  1
  Se  Se33  1  0.625600  0.624300  0.855900  1
  Se  Se34  1  0.000000  0.000000  0.338200  1
  Se  Se35  1  0.337900  0.035800  0.250000  1
  Se  Se36  1  0.333333  0.666667  0.531400  1
  Se  Se37  1  0.000000  0.000000  0.838200  1
  Se  Se38  1  0.330000  0.292200  0.547300  1
  Se  Se39  1  0.302100  0.337900  0.750000  1
  Se  Se40  1  0.666667  0.333333  0.468600  1
  Se  Se41  1  0.292200  0.962200  0.452700  1
  Se  Se42  1  0.962200  0.670000  0.547300  1
  Se  Se43  1  0.670000  0.707800  0.047300  1
  Se  Se44  1  0.035800  0.697900  0.750000  1
  Se  Se45  1  0.707800  0.037800  0.547300  1
  Se  Se46  1  0.670000  0.707800  0.452700  1
  Se  Se47  1  0.624300  0.998700  0.144100  1
  Se  Se48  1  0.998700  0.374400  0.644100  1
  Se  Se49  1  0.998700  0.374400  0.855900  1
  Se  Se50  1  0.964200  0.302100  0.250000  1
  Se  Se51  1  0.707800  0.037800  0.952700  1
  Se  Se52  1  0.037800  0.330000  0.452700  1
  Se  Se53  1  0.666667  0.333333  0.031400  1
  Se  Se54  1  0.624300  0.998700  0.355900  1
  Se  Se55  1  0.375700  0.001300  0.855900  1
  Se  Se56  1  0.001300  0.625600  0.144100  1
  Se  Se57  1  0.962200  0.670000  0.952700  1
  Se  Se58  1  0.374400  0.375700  0.355900  1
  Se  Se59  1  0.662100  0.964200  0.750000  1
  Se  Se60  1  0.330000  0.292200  0.952700  1
  Se  Se61  1  0.000000  0.000000  0.661800  1
  Se  Se62  1  0.333333  0.666667  0.968600  1
  Se  Se63  1  0.292200  0.962200  0.047300  1
  Se  Se64  1  0.697900  0.662100  0.250000  1
  Se  Se65  1  0.625600  0.624300  0.644100  1
  Se  Se66  1  0.000000  0.000000  0.161800  1
  Se  Se67  1  0.374400  0.375700  0.144100  1
