# generated using pymatgen
data_FeF3
_symmetry_space_group_name_H-M   'P 1'
_cell_length_a   5.19827978
_cell_length_b   5.19827936
_cell_length_c   5.36200025
_cell_angle_alpha   61.00500285
_cell_angle_beta   61.00499872
_cell_angle_gamma   60.00000106
_symmetry_Int_Tables_number   1
_chemical_formula_structural   FeF3
_chemical_formula_sum   'Fe2 F6'
_cell_volume   103.98337262
_cell_formula_units_Z   2
loop_
 _symmetry_equiv_pos_site_id
 _symmetry_equiv_pos_as_xyz
  1  'x, y, z'
loop_
 _atom_site_type_symbol
 _atom_site_label
 _atom_site_symmetry_multiplicity
 _atom_site_fract_x
 _atom_site_fract_y
 _atom_site_fract_z
 _atom_site_occupancy
  Fe  Fe0  1  0.500000  0.500000  0.500000  1
  Fe  Fe1  1  0.000000  0.000000  0.000000  1
  F  F2  1  0.836000  0.250000  0.250000  1
  F  F3  1  0.664000  0.836000  0.250000  1
  F  F4  1  0.250000  0.664000  0.250000  1
  F  F5  1  0.164000  0.750000  0.750000  1
  F  F6  1  0.336000  0.164000  0.750000  1
  F  F7  1  0.750000  0.336000  0.750000  1
