# generated using pymatgen
data_K2MnF6
_symmetry_space_group_name_H-M   'P 1'
_cell_length_a   5.90459452
_cell_length_b   5.90459431
_cell_length_c   5.90459500
_cell_angle_alpha   60.00000172
_cell_angle_beta   60.00000290
_cell_angle_gamma   59.99999752
_symmetry_Int_Tables_number   1
_chemical_formula_structural   K2MnF6
_chemical_formula_sum   'K2 Mn1 F6'
_cell_volume   145.56443061
_cell_formula_units_Z   1
loop_
 _symmetry_equiv_pos_site_id
 _symmetry_equiv_pos_as_xyz
  1  'x, y, z'
loop_
 _atom_site_type_symbol
 _atom_site_label
 _atom_site_symmetry_multiplicity
 _atom_site_fract_x
 _atom_site_fract_y
 _atom_site_fract_z
 _atom_site_occupancy
  K  K0  1  0.750000  0.750000  0.750000  1
  K  K1  1  0.250000  0.250000  0.250000  1
  Mn  Mn2  1  0.000000  0.000000  0.000000  1
  F  F3  1  0.220036  0.779964  0.779964  1
  F  F4  1  0.220036  0.779964  0.220036  1
  F  F5  1  0.779964  0.220036  0.779964  1
  F  F6  1  0.779964  0.220036  0.220036  1
  F  F7  1  0.779964  0.779964  0.220036  1
  F  F8  1  0.220036  0.220036  0.779964  1
