# generated using pymatgen
data_Cu(PO3)3
_symmetry_space_group_name_H-M   'P 1'
_cell_length_a   8.60804800
_cell_length_b   8.30293800
_cell_length_c   8.82962200
_cell_angle_alpha   90.00000000
_cell_angle_beta   90.00000000
_cell_angle_gamma   90.00000000
_symmetry_Int_Tables_number   1
_chemical_formula_structural   Cu(PO3)3
_chemical_formula_sum   'Cu4 P12 O36'
_cell_volume   631.07152805
_cell_formula_units_Z   4
loop_
 _symmetry_equiv_pos_site_id
 _symmetry_equiv_pos_as_xyz
  1  'x, y, z'
loop_
 _atom_site_type_symbol
 _atom_site_label
 _atom_site_symmetry_multiplicity
 _atom_site_fract_x
 _atom_site_fract_y
 _atom_site_fract_z
 _atom_site_occupancy
  Cu  Cu0  1  0.117916  0.095872  0.135705  1
  Cu  Cu1  1  0.382084  0.904128  0.635705  1
  Cu  Cu2  1  0.617916  0.404128  0.864295  1
  Cu  Cu3  1  0.882084  0.595872  0.364295  1
  O  O4  1  0.010171  0.786840  0.911032  1
  O  O5  1  0.068788  0.128199  0.354452  1
  O  O6  1  0.114938  0.526806  0.701826  1
  O  O7  1  0.122732  0.864753  0.167291  1
  O  O8  1  0.123911  0.914189  0.669693  1
  O  O9  1  0.131291  0.613426  0.422931  1
  O  O10  1  0.142959  0.327277  0.111954  1
  O  O11  1  0.151042  0.062464  0.921502  1
  O  O12  1  0.200381  0.609084  0.026656  1
  O  O13  1  0.299619  0.390916  0.526656  1
  O  O14  1  0.348958  0.937536  0.421502  1
  O  O15  1  0.357041  0.672723  0.611954  1
  O  O16  1  0.368709  0.386574  0.922931  1
  O  O17  1  0.376089  0.085811  0.169693  1
  O  O18  1  0.377268  0.135247  0.667291  1
  O  O19  1  0.385062  0.473195  0.201826  1
  O  O20  1  0.431212  0.871801  0.854452  1
  O  O21  1  0.489829  0.213160  0.411032  1
  O  O22  1  0.510171  0.713160  0.088968  1
  O  O23  1  0.568788  0.371801  0.645548  1
  O  O24  1  0.614938  0.973194  0.298174  1
  O  O25  1  0.622732  0.635247  0.832709  1
  O  O26  1  0.623911  0.585811  0.330307  1
  O  O27  1  0.631291  0.886574  0.577069  1
  O  O28  1  0.642959  0.172723  0.888046  1
  O  O29  1  0.651042  0.437536  0.078498  1
  O  O30  1  0.700381  0.890916  0.973344  1
  O  O31  1  0.799619  0.109084  0.473344  1
  O  O32  1  0.848958  0.562464  0.578498  1
  O  O33  1  0.857041  0.827277  0.388046  1
  O  O34  1  0.868709  0.113426  0.077069  1
  O  O35  1  0.876089  0.414189  0.830307  1
  O  O36  1  0.877268  0.364753  0.332709  1
  O  O37  1  0.885062  0.026805  0.798174  1
  O  O38  1  0.931212  0.628199  0.145548  1
  O  O39  1  0.989829  0.286840  0.588968  1
  P  P40  1  0.056144  0.951483  0.822265  1
  P  P41  1  0.060770  0.724953  0.076750  1
  P  P42  1  0.227433  0.565682  0.559097  1
  P  P43  1  0.272567  0.434318  0.059097  1
  P  P44  1  0.439230  0.275047  0.576750  1
  P  P45  1  0.443856  0.048517  0.322265  1
  P  P46  1  0.556144  0.548517  0.177735  1
  P  P47  1  0.560770  0.775047  0.923250  1
  P  P48  1  0.727433  0.934318  0.440903  1
  P  P49  1  0.772567  0.065682  0.940903  1
  P  P50  1  0.939230  0.224953  0.423250  1
  P  P51  1  0.943856  0.451483  0.677735  1
