# generated using pymatgen
data_CuO2
_symmetry_space_group_name_H-M   'P 1'
_cell_length_a   2.72999994
_cell_length_b   3.89688653
_cell_length_c   5.86116200
_cell_angle_alpha   85.32083135
_cell_angle_beta   76.53277988
_cell_angle_gamma   69.49558238
_symmetry_Int_Tables_number   1
_chemical_formula_structural   CuO2
_chemical_formula_sum   'Cu1 O2'
_cell_volume   56.79764370
_cell_formula_units_Z   1
loop_
 _symmetry_equiv_pos_site_id
 _symmetry_equiv_pos_as_xyz
  1  'x, y, z'
loop_
 _atom_site_type_symbol
 _atom_site_label
 _atom_site_symmetry_multiplicity
 _atom_site_fract_x
 _atom_site_fract_y
 _atom_site_fract_z
 _atom_site_occupancy
  Cu  Cu0  1  0.250000  0.500000  0.500000  1
  O  O1  1  0.650000  0.500000  0.700000  1
  O  O2  1  0.850000  0.500000  0.300000  1
