# generated using pymatgen
data_Mn3(PO4)4
_symmetry_space_group_name_H-M   'P 1'
_cell_length_a   6.28094331
_cell_length_b   9.90598638
_cell_length_c   10.50233166
_cell_angle_alpha   88.21165877
_cell_angle_beta   90.01968679
_cell_angle_gamma   71.53796079
_symmetry_Int_Tables_number   1
_chemical_formula_structural   Mn3(PO4)4
_chemical_formula_sum   'Mn6 P8 O32'
_cell_volume   619.47564197
_cell_formula_units_Z   2
loop_
 _symmetry_equiv_pos_site_id
 _symmetry_equiv_pos_as_xyz
  1  'x, y, z'
loop_
 _atom_site_type_symbol
 _atom_site_label
 _atom_site_symmetry_multiplicity
 _atom_site_fract_x
 _atom_site_fract_y
 _atom_site_fract_z
 _atom_site_occupancy
  Mn  Mn0  1  0.369120  0.302850  0.250567  1
  Mn  Mn1  1  0.630880  0.697150  0.749433  1
  Mn  Mn2  1  0.000000  0.500000  0.000000  1
  Mn  Mn3  1  0.327982  0.302868  0.750475  1
  Mn  Mn4  1  0.672018  0.697132  0.249525  1
  Mn  Mn5  1  0.500000  0.500000  0.500000  1
  P  P6  1  0.414208  0.833517  0.489670  1
  P  P7  1  0.585792  0.166483  0.510330  1
  P  P8  1  0.780837  0.400862  0.755194  1
  P  P9  1  0.219163  0.599138  0.244806  1
  P  P10  1  0.247513  0.166639  0.010284  1
  P  P11  1  0.181509  0.599109  0.744794  1
  P  P12  1  0.818491  0.400891  0.255206  1
  P  P13  1  0.752487  0.833361  0.989716  1
  O  O14  1  0.371252  0.170734  0.879167  1
  O  O15  1  0.723703  0.514850  0.364064  1
  O  O16  1  0.628748  0.829266  0.120833  1
  O  O17  1  0.457961  0.170619  0.379197  1
  O  O18  1  0.542039  0.829381  0.620803  1
  O  O19  1  0.939787  0.689815  0.721329  1
  O  O20  1  0.772220  0.032189  0.531806  1
  O  O21  1  0.238236  0.485209  0.135853  1
  O  O22  1  0.961138  0.693245  0.991785  1
  O  O23  1  0.791788  0.520715  0.142553  1
  O  O24  1  0.328913  0.690143  0.770784  1
  O  O25  1  0.345710  0.693205  0.491648  1
  O  O26  1  0.414280  0.189080  0.115982  1
  O  O27  1  0.654290  0.306795  0.508352  1
  O  O28  1  0.276297  0.485150  0.635936  1
  O  O29  1  0.060213  0.310185  0.278671  1
  O  O30  1  0.687506  0.520792  0.642634  1
  O  O31  1  0.671087  0.309857  0.229216  1
  O  O32  1  0.312494  0.479208  0.357366  1
  O  O33  1  0.585720  0.810920  0.884018  1
  O  O34  1  0.396837  0.188748  0.616191  1
  O  O35  1  0.981134  0.690121  0.270878  1
  O  O36  1  0.603163  0.811252  0.383809  1
  O  O37  1  0.195111  0.032205  0.031713  1
  O  O38  1  0.208212  0.479285  0.857447  1
  O  O39  1  0.038862  0.306755  0.008215  1
  O  O40  1  0.018866  0.309879  0.729122  1
  O  O41  1  0.370499  0.689803  0.221276  1
  O  O42  1  0.227780  0.967811  0.468194  1
  O  O43  1  0.804889  0.967795  0.968287  1
  O  O44  1  0.629501  0.310197  0.778724  1
  O  O45  1  0.761764  0.514791  0.864147  1
