# generated using pymatgen
data_Na4Cr2C4SO16
_symmetry_space_group_name_H-M   'P 1'
_cell_length_a   9.84448152
_cell_length_b   9.67582208
_cell_length_c   9.84448180
_cell_angle_alpha   60.81054089
_cell_angle_beta   92.36772155
_cell_angle_gamma   60.81054182
_symmetry_Int_Tables_number   1
_chemical_formula_structural   Na4Cr2C4SO16
_chemical_formula_sum   'Na8 Cr4 C8 S2 O32'
_cell_volume   665.01535944
_cell_formula_units_Z   2
loop_
 _symmetry_equiv_pos_site_id
 _symmetry_equiv_pos_as_xyz
  1  'x, y, z'
loop_
 _atom_site_type_symbol
 _atom_site_label
 _atom_site_symmetry_multiplicity
 _atom_site_fract_x
 _atom_site_fract_y
 _atom_site_fract_z
 _atom_site_occupancy
  Na  Na0  1  0.083837  0.832326  0.833837  1
  Na  Na1  1  0.084432  0.250000  0.834432  1
  Na  Na2  1  0.334432  0.750000  0.584432  1
  Na  Na3  1  0.333837  0.332326  0.583837  1
  Na  Na4  1  0.666163  0.667674  0.416163  1
  Na  Na5  1  0.665568  0.250000  0.415568  1
  Na  Na6  1  0.915568  0.750000  0.165568  1
  Na  Na7  1  0.916163  0.167674  0.166163  1
  Cr  Cr8  1  0.000000  0.500000  0.000000  1
  Cr  Cr9  1  0.500000  0.000000  0.500000  1
  Cr  Cr10  1  0.500000  0.500000  0.000000  1
  Cr  Cr11  1  0.500000  0.000000  0.000000  1
  C  C12  1  0.361446  0.927803  0.780311  1
  C  C13  1  0.280311  0.427803  0.861446  1
  C  C14  1  0.710751  0.927803  0.791886  1
  C  C15  1  0.708114  0.572197  0.789249  1
  C  C16  1  0.291886  0.427803  0.210751  1
  C  C17  1  0.289249  0.072197  0.208114  1
  C  C18  1  0.719689  0.572197  0.138554  1
  C  C19  1  0.638554  0.072197  0.219689  1
  S  S20  1  0.125000  0.750000  0.375000  1
  S  S21  1  0.875000  0.250000  0.625000  1
  O  O22  1  0.356448  0.787567  0.893658  1
  O  O23  1  0.065812  0.877228  0.434836  1
  O  O24  1  0.365148  0.951321  0.639681  1
  O  O25  1  0.139681  0.451321  0.865148  1
  O  O26  1  0.683530  0.951321  0.908998  1
  O  O27  1  0.306046  0.550592  0.855773  1
  O  O28  1  0.056960  0.877228  0.187937  1
  O  O29  1  0.065164  0.622772  0.434188  1
  O  O30  1  0.406364  0.949408  0.356638  1
  O  O31  1  0.591002  0.548679  0.816470  1
  O  O32  1  0.393658  0.287567  0.856448  1
  O  O33  1  0.312063  0.622772  0.443040  1
  O  O34  1  0.855984  0.787567  0.818774  1
  O  O35  1  0.681226  0.712433  0.644016  1
  O  O36  1  0.355773  0.050592  0.806046  1
  O  O37  1  0.143362  0.550592  0.093636  1
  O  O38  1  0.856638  0.449408  0.906364  1
  O  O39  1  0.644227  0.949408  0.193954  1
  O  O40  1  0.318774  0.287567  0.355984  1
  O  O41  1  0.144016  0.212432  0.181226  1
  O  O42  1  0.687937  0.377228  0.556960  1
  O  O43  1  0.606342  0.712433  0.143552  1
  O  O44  1  0.408998  0.451321  0.183530  1
  O  O45  1  0.593636  0.050592  0.643362  1
  O  O46  1  0.934836  0.377228  0.565812  1
  O  O47  1  0.943040  0.122772  0.812063  1
  O  O48  1  0.693954  0.449408  0.144227  1
  O  O49  1  0.316470  0.048679  0.091002  1
  O  O50  1  0.860319  0.548679  0.134852  1
  O  O51  1  0.634852  0.048679  0.360319  1
  O  O52  1  0.934188  0.122772  0.565164  1
  O  O53  1  0.643552  0.212432  0.106342  1
