# generated using pymatgen
data_Na2CuBSO7
_symmetry_space_group_name_H-M   'P 1'
_cell_length_a   8.74618973
_cell_length_b   7.23824300
_cell_length_c   5.07154139
_cell_angle_alpha   90.00000000
_cell_angle_beta   88.75625378
_cell_angle_gamma   90.00000000
_symmetry_Int_Tables_number   1
_chemical_formula_structural   Na2CuBSO7
_chemical_formula_sum   'Na4 Cu2 B2 S2 O14'
_cell_volume   320.98866492
_cell_formula_units_Z   2
loop_
 _symmetry_equiv_pos_site_id
 _symmetry_equiv_pos_as_xyz
  1  'x, y, z'
loop_
 _atom_site_type_symbol
 _atom_site_label
 _atom_site_symmetry_multiplicity
 _atom_site_fract_x
 _atom_site_fract_y
 _atom_site_fract_z
 _atom_site_occupancy
  Na  Na0  1  0.231074  0.499689  0.229769  1
  Na  Na1  1  0.231074  0.000311  0.229769  1
  Na  Na2  1  0.768926  0.500311  0.770231  1
  Na  Na3  1  0.768926  0.999689  0.770231  1
  Cu  Cu4  1  0.344825  0.750000  0.772205  1
  Cu  Cu5  1  0.655175  0.250000  0.227795  1
  B  B6  1  0.073634  0.750000  0.725700  1
  B  B7  1  0.926366  0.250000  0.274300  1
  S  S8  1  0.421410  0.250000  0.720377  1
  S  S9  1  0.578590  0.750000  0.279623  1
  O  O10  1  0.076275  0.250000  0.283775  1
  O  O11  1  0.158900  0.750000  0.956820  1
  O  O12  1  0.185563  0.750000  0.522081  1
  O  O13  1  0.334256  0.081949  0.784525  1
  O  O14  1  0.334256  0.418051  0.784525  1
  O  O15  1  0.427100  0.750000  0.141773  1
  O  O16  1  0.460418  0.250000  0.424531  1
  O  O17  1  0.539582  0.750000  0.575469  1
  O  O18  1  0.572900  0.250000  0.858227  1
  O  O19  1  0.665744  0.581949  0.215475  1
  O  O20  1  0.665744  0.918051  0.215475  1
  O  O21  1  0.814437  0.250000  0.477919  1
  O  O22  1  0.841100  0.250000  0.043180  1
  O  O23  1  0.923725  0.750000  0.716225  1
