# generated using pymatgen
data_CoPO4
_symmetry_space_group_name_H-M   'P 1'
_cell_length_a   5.81889356
_cell_length_b   11.13314925
_cell_length_c   9.90275128
_cell_angle_alpha   90.00000000
_cell_angle_beta   94.40926613
_cell_angle_gamma   90.00000000
_symmetry_Int_Tables_number   1
_chemical_formula_structural   CoPO4
_chemical_formula_sum   'Co8 P8 O32'
_cell_volume   639.62737391
_cell_formula_units_Z   8
loop_
 _symmetry_equiv_pos_site_id
 _symmetry_equiv_pos_as_xyz
  1  'x, y, z'
loop_
 _atom_site_type_symbol
 _atom_site_label
 _atom_site_symmetry_multiplicity
 _atom_site_fract_x
 _atom_site_fract_y
 _atom_site_fract_z
 _atom_site_occupancy
  Co  Co0  1  0.130333  0.905846  0.750456  1
  Co  Co1  1  0.130333  0.594154  0.250456  1
  Co  Co2  1  0.347170  0.377421  0.002248  1
  Co  Co3  1  0.347170  0.122579  0.502248  1
  Co  Co4  1  0.652830  0.877421  0.497752  1
  Co  Co5  1  0.652830  0.622579  0.997752  1
  Co  Co6  1  0.869667  0.405846  0.749544  1
  Co  Co7  1  0.869667  0.094154  0.249544  1
  P  P8  1  0.113365  0.642054  0.928739  1
  P  P9  1  0.113365  0.857946  0.428739  1
  P  P10  1  0.370378  0.379192  0.686314  1
  P  P11  1  0.370378  0.120807  0.186314  1
  P  P12  1  0.629622  0.879193  0.813686  1
  P  P13  1  0.629622  0.620807  0.313686  1
  P  P14  1  0.886635  0.142054  0.571261  1
  P  P15  1  0.886635  0.357946  0.071261  1
  O  O16  1  0.054963  0.824637  0.575618  1
  O  O17  1  0.104635  0.068592  0.627727  1
  O  O18  1  0.054963  0.675363  0.075618  1
  O  O19  1  0.104635  0.431408  0.127727  1
  O  O20  1  0.151890  0.749279  0.839359  1
  O  O21  1  0.149431  0.457126  0.679561  1
  O  O22  1  0.151890  0.750721  0.339359  1
  O  O23  1  0.149431  0.042874  0.179561  1
  O  O24  1  0.336050  0.561160  0.937179  1
  O  O25  1  0.411239  0.323406  0.831422  1
  O  O26  1  0.336050  0.938840  0.437179  1
  O  O27  1  0.414769  0.960399  0.831333  1
  O  O28  1  0.352625  0.280785  0.579348  1
  O  O29  1  0.411239  0.176594  0.331422  1
  O  O30  1  0.414769  0.539601  0.331333  1
  O  O31  1  0.352625  0.219215  0.079348  1
  O  O32  1  0.647375  0.780785  0.920652  1
  O  O33  1  0.585231  0.460399  0.668667  1
  O  O34  1  0.588761  0.823406  0.668578  1
  O  O35  1  0.647375  0.719215  0.420652  1
  O  O36  1  0.585231  0.039601  0.168667  1
  O  O37  1  0.663950  0.061160  0.562821  1
  O  O38  1  0.588761  0.676594  0.168578  1
  O  O39  1  0.663950  0.438840  0.062821  1
  O  O40  1  0.850569  0.957126  0.820439  1
  O  O41  1  0.848110  0.249279  0.660641  1
  O  O42  1  0.850569  0.542874  0.320439  1
  O  O43  1  0.848110  0.250721  0.160641  1
  O  O44  1  0.895365  0.568592  0.872273  1
  O  O45  1  0.945037  0.324637  0.924382  1
  O  O46  1  0.895365  0.931408  0.372273  1
  O  O47  1  0.945037  0.175363  0.424382  1
