# generated using pymatgen
data_Li5Mn2P2(CO7)2
_symmetry_space_group_name_H-M   'P 1'
_cell_length_a   8.48921754
_cell_length_b   10.04317313
_cell_length_c   6.42997683
_cell_angle_alpha   90.05157814
_cell_angle_beta   89.65598242
_cell_angle_gamma   86.18532276
_symmetry_Int_Tables_number   1
_chemical_formula_structural   Li5Mn2P2(CO7)2
_chemical_formula_sum   'Li10 Mn4 P4 C4 O28'
_cell_volume   546.98643741
_cell_formula_units_Z   2
loop_
 _symmetry_equiv_pos_site_id
 _symmetry_equiv_pos_as_xyz
  1  'x, y, z'
loop_
 _atom_site_type_symbol
 _atom_site_label
 _atom_site_symmetry_multiplicity
 _atom_site_fract_x
 _atom_site_fract_y
 _atom_site_fract_z
 _atom_site_occupancy
  Li  Li0  1  0.090256  0.378734  0.247861  1
  Li  Li1  1  0.263608  0.120280  0.028896  1
  Li  Li2  1  0.264611  0.120573  0.470930  1
  Li  Li3  1  0.266782  0.632428  0.029458  1
  Li  Li4  1  0.264855  0.631807  0.470966  1
  Li  Li5  1  0.725880  0.375474  0.543864  1
  Li  Li6  1  0.735433  0.874866  0.516941  1
  Li  Li7  1  0.735615  0.872999  0.980677  1
  Li  Li8  1  0.902760  0.119035  0.754649  1
  Li  Li9  1  0.900907  0.613649  0.757778  1
  Mn  Mn10  1  0.338995  0.393981  0.752520  1
  Mn  Mn11  1  0.338625  0.895134  0.748835  1
  Mn  Mn12  1  0.667983  0.108702  0.247452  1
  Mn  Mn13  1  0.671482  0.595432  0.245423  1
  P  P14  1  0.413283  0.363658  0.255907  1
  P  P15  1  0.418433  0.863180  0.249056  1
  P  P16  1  0.583350  0.138257  0.744501  1
  P  P17  1  0.585487  0.643857  0.747637  1
  C  C18  1  0.038201  0.351211  0.742811  1
  C  C19  1  0.036838  0.854409  0.749515  1
  C  C20  1  0.960647  0.142980  0.255198  1
  C  C21  1  0.964381  0.642388  0.253417  1
  O  O22  1  0.069312  0.475522  0.752037  1
  O  O23  1  0.105876  0.180218  0.252249  1
  O  O24  1  0.068169  0.977631  0.749773  1
  O  O25  1  0.159484  0.261344  0.759388  1
  O  O26  1  0.106452  0.675515  0.249737  1
  O  O27  1  0.156580  0.763539  0.749238  1
  O  O28  1  0.316728  0.417328  0.064112  1
  O  O29  1  0.302959  0.413121  0.440187  1
  O  O30  1  0.325121  0.917464  0.056442  1
  O  O31  1  0.324672  0.919256  0.441537  1
  O  O32  1  0.416099  0.085953  0.751119  1
  O  O33  1  0.432024  0.208388  0.250973  1
  O  O34  1  0.418795  0.589951  0.751077  1
  O  O35  1  0.431720  0.707785  0.250558  1
  O  O36  1  0.562666  0.291925  0.726995  1
  O  O37  1  0.577055  0.419009  0.272021  1
  O  O38  1  0.567827  0.799212  0.736574  1
  O  O39  1  0.588664  0.913357  0.245955  1
  O  O40  1  0.685979  0.089450  0.934154  1
  O  O41  1  0.686273  0.079763  0.559682  1
  O  O42  1  0.689060  0.587563  0.562240  1
  O  O43  1  0.688410  0.601761  0.938016  1
  O  O44  1  0.845070  0.236941  0.269025  1
  O  O45  1  0.900079  0.311929  0.717338  1
  O  O46  1  0.842273  0.731478  0.250572  1
  O  O47  1  0.925561  0.021994  0.242439  1
  O  O48  1  0.894276  0.816222  0.749495  1
  O  O49  1  0.928179  0.518508  0.258955  1
