# generated using pymatgen
data_V3Fe2CuO12
_symmetry_space_group_name_H-M   'P 1'
_cell_length_a   8.23966612
_cell_length_b   9.85317679
_cell_length_c   6.61051660
_cell_angle_alpha   103.13563687
_cell_angle_beta   102.27725339
_cell_angle_gamma   106.14713798
_symmetry_Int_Tables_number   1
_chemical_formula_structural   V3Fe2CuO12
_chemical_formula_sum   'V6 Fe4 Cu2 O24'
_cell_volume   479.70248492
_cell_formula_units_Z   2
loop_
 _symmetry_equiv_pos_site_id
 _symmetry_equiv_pos_as_xyz
  1  'x, y, z'
loop_
 _atom_site_type_symbol
 _atom_site_label
 _atom_site_symmetry_multiplicity
 _atom_site_fract_x
 _atom_site_fract_y
 _atom_site_fract_z
 _atom_site_occupancy
  V  V0  1  0.166196  0.763198  0.226531  1
  V  V1  1  0.225952  0.379400  0.409214  1
  V  V2  1  0.394924  0.167625  0.882607  1
  V  V3  1  0.605076  0.832375  0.117393  1
  V  V4  1  0.774048  0.620600  0.590786  1
  V  V5  1  0.833804  0.236802  0.773469  1
  Fe  Fe6  1  0.288890  0.482824  0.951035  1
  Fe  Fe7  1  0.564982  0.895938  0.623672  1
  Fe  Fe8  1  0.435018  0.104062  0.376328  1
  Fe  Fe9  1  0.711110  0.517176  0.048965  1
  Cu  Cu10  1  0.233363  0.735002  0.747092  1
  Cu  Cu11  1  0.766637  0.264998  0.252908  1
  O  O12  1  0.051778  0.324387  0.820642  1
  O  O13  1  0.209085  0.943305  0.229438  1
  O  O14  1  0.232534  0.664515  0.004479  1
  O  O15  1  0.006911  0.284504  0.323650  1
  O  O16  1  0.280935  0.765633  0.484154  1
  O  O17  1  0.279825  0.504224  0.673715  1
  O  O18  1  0.188983  0.076866  0.837477  1
  O  O19  1  0.487134  0.850412  0.869009  1
  O  O20  1  0.282438  0.472977  0.223781  1
  O  O21  1  0.427528  0.359168  0.919216  1
  O  O22  1  0.534369  0.920247  0.336291  1
  O  O23  1  0.340324  0.258882  0.428257  1
  O  O24  1  0.659676  0.741118  0.571743  1
  O  O25  1  0.465631  0.079753  0.663709  1
  O  O26  1  0.572472  0.640832  0.080784  1
  O  O27  1  0.717562  0.527023  0.776219  1
  O  O28  1  0.512866  0.149588  0.130991  1
  O  O29  1  0.811017  0.923134  0.162523  1
  O  O30  1  0.720175  0.495776  0.326285  1
  O  O31  1  0.719065  0.234367  0.515846  1
  O  O32  1  0.993089  0.715496  0.676350  1
  O  O33  1  0.767466  0.335485  0.995521  1
  O  O34  1  0.790915  0.056695  0.770562  1
  O  O35  1  0.948222  0.675613  0.179358  1
