# generated using pymatgen
data_Na4Sn2C4SO16
_symmetry_space_group_name_H-M   'P 1'
_cell_length_a   10.15267700
_cell_length_b   10.04765423
_cell_length_c   9.90065642
_cell_angle_alpha   117.61569808
_cell_angle_beta   60.66100849
_cell_angle_gamma   117.18471366
_symmetry_Int_Tables_number   1
_chemical_formula_structural   Na4Sn2C4SO16
_chemical_formula_sum   'Na8 Sn4 C8 S2 O32'
_cell_volume   744.82305283
_cell_formula_units_Z   2
loop_
 _symmetry_equiv_pos_site_id
 _symmetry_equiv_pos_as_xyz
  1  'x, y, z'
loop_
 _atom_site_type_symbol
 _atom_site_label
 _atom_site_symmetry_multiplicity
 _atom_site_fract_x
 _atom_site_fract_y
 _atom_site_fract_z
 _atom_site_occupancy
  Na  Na0  1  0.920490  0.163775  0.320729  1
  Na  Na1  1  0.920380  0.160060  0.917930  1
  Na  Na2  1  0.918647  0.577894  0.329158  1
  Na  Na3  1  0.669566  0.438091  0.081661  1
  Na  Na4  1  0.327412  0.168631  0.919187  1
  Na  Na5  1  0.339457  0.580856  0.924788  1
  Na  Na6  1  0.079408  0.425938  0.665598  1
  Na  Na7  1  0.077147  0.814063  0.664589  1
  Sn  Sn8  1  0.500080  0.998550  0.001871  1
  Sn  Sn9  1  0.502028  0.998220  0.497190  1
  Sn  Sn10  1  0.500292  0.504960  0.503076  1
  Sn  Sn11  1  0.001973  0.991252  0.484127  1
  C  C12  1  0.707355  0.156761  0.724214  1
  C  C13  1  0.660954  0.210631  0.270608  1
  C  C14  1  0.273275  0.206927  0.669162  1
  C  C15  1  0.296940  0.225483  0.265454  1
  C  C16  1  0.709450  0.783736  0.733660  1
  C  C17  1  0.721846  0.791977  0.340103  1
  C  C18  1  0.340684  0.794349  0.732774  1
  C  C19  1  0.289692  0.840965  0.279132  1
  S  S20  1  0.875872  0.623046  0.870612  1
  S  S21  1  0.120616  0.369790  0.122299  1
  O  O22  1  0.845107  0.186772  0.718487  1
  O  O23  1  0.647641  0.090003  0.301258  1
  O  O24  1  0.686486  0.136202  0.594333  1
  O  O25  1  0.651375  0.182442  0.130019  1
  O  O26  1  0.582222  0.148177  0.859906  1
  O  O27  1  0.942296  0.565136  0.686350  1
  O  O28  1  0.931722  0.552371  0.931340  1
  O  O29  1  0.692082  0.350353  0.361688  1
  O  O30  1  0.409255  0.188291  0.638660  1
  O  O31  1  0.309645  0.091501  0.139331  1
  O  O32  1  0.938313  0.798239  0.923066  1
  O  O33  1  0.700082  0.568866  0.932163  1
  O  O34  1  0.724267  0.656274  0.317524  1
  O  O35  1  0.845326  0.785475  0.616607  1
  O  O36  1  0.418409  0.345928  0.267178  1
  O  O37  1  0.144088  0.093574  0.688614  1
  O  O38  1  0.844631  0.913794  0.338304  1
  O  O39  1  0.589251  0.663278  0.738655  1
  O  O40  1  0.279365  0.343027  0.682673  1
  O  O41  1  0.159197  0.221424  0.376601  1
  O  O42  1  0.296904  0.420640  0.057044  1
  O  O43  1  0.064505  0.191599  0.064413  1
  O  O44  1  0.583439  0.803822  0.372579  1
  O  O45  1  0.699891  0.922505  0.851566  1
  O  O46  1  0.305371  0.657077  0.638506  1
  O  O47  1  0.054699  0.425444  0.303197  1
  O  O48  1  0.060895  0.429834  0.056302  1
  O  O49  1  0.412939  0.855410  0.145431  1
  O  O50  1  0.361219  0.816816  0.863601  1
  O  O51  1  0.312602  0.868183  0.410659  1
  O  O52  1  0.354434  0.919151  0.706236  1
  O  O53  1  0.148777  0.798887  0.286240  1
