# generated using pymatgen
data_Na2FeSiCO7
_symmetry_space_group_name_H-M   'P 1'
_cell_length_a   9.07133251
_cell_length_b   6.43539135
_cell_length_c   5.32146845
_cell_angle_alpha   90.00000000
_cell_angle_beta   88.09035439
_cell_angle_gamma   90.00000000
_symmetry_Int_Tables_number   1
_chemical_formula_structural   Na2FeSiCO7
_chemical_formula_sum   'Na4 Fe2 Si2 C2 O14'
_cell_volume   310.48189106
_cell_formula_units_Z   2
loop_
 _symmetry_equiv_pos_site_id
 _symmetry_equiv_pos_as_xyz
  1  'x, y, z'
loop_
 _atom_site_type_symbol
 _atom_site_label
 _atom_site_symmetry_multiplicity
 _atom_site_fract_x
 _atom_site_fract_y
 _atom_site_fract_z
 _atom_site_occupancy
  Na  Na0  1  0.235412  0.496295  0.235483  1
  Na  Na1  1  0.235412  0.003705  0.235483  1
  Na  Na2  1  0.764588  0.503705  0.764517  1
  Na  Na3  1  0.764588  0.996295  0.764517  1
  Fe  Fe4  1  0.355770  0.750000  0.786283  1
  Fe  Fe5  1  0.644230  0.250000  0.213717  1
  Si  Si6  1  0.434393  0.250000  0.706554  1
  Si  Si7  1  0.565607  0.750000  0.293446  1
  C  C8  1  0.077666  0.750000  0.721654  1
  C  C9  1  0.922334  0.250000  0.278346  1
  O  O10  1  0.061131  0.250000  0.276710  1
  O  O11  1  0.149402  0.750000  0.934743  1
  O  O12  1  0.163755  0.750000  0.523208  1
  O  O13  1  0.333273  0.044332  0.774965  1
  O  O14  1  0.333273  0.455668  0.774965  1
  O  O15  1  0.411745  0.750000  0.146183  1
  O  O16  1  0.467204  0.250000  0.393115  1
  O  O17  1  0.532796  0.750000  0.606885  1
  O  O18  1  0.588255  0.250000  0.853817  1
  O  O19  1  0.666727  0.544332  0.225035  1
  O  O20  1  0.666727  0.955668  0.225035  1
  O  O21  1  0.836245  0.250000  0.476792  1
  O  O22  1  0.850598  0.250000  0.065257  1
  O  O23  1  0.938869  0.750000  0.723290  1
