# generated using pymatgen
data_Na4Bi2P(CO4)4
_symmetry_space_group_name_H-M   'P 1'
_cell_length_a   10.50941092
_cell_length_b   10.18655756
_cell_length_c   10.50941014
_cell_angle_alpha   61.61682830
_cell_angle_beta   94.50091901
_cell_angle_gamma   61.61682227
_symmetry_Int_Tables_number   1
_chemical_formula_structural   Na4Bi2P(CO4)4
_chemical_formula_sum   'Na8 Bi4 P2 C8 O32'
_cell_volume   800.65196564
_cell_formula_units_Z   2
loop_
 _symmetry_equiv_pos_site_id
 _symmetry_equiv_pos_as_xyz
  1  'x, y, z'
loop_
 _atom_site_type_symbol
 _atom_site_label
 _atom_site_symmetry_multiplicity
 _atom_site_fract_x
 _atom_site_fract_y
 _atom_site_fract_z
 _atom_site_occupancy
  Na  Na0  1  0.076014  0.847971  0.826014  1
  Na  Na1  1  0.077569  0.250000  0.827569  1
  Na  Na2  1  0.327569  0.750000  0.577569  1
  Na  Na3  1  0.326014  0.347971  0.576014  1
  Na  Na4  1  0.673986  0.652029  0.423986  1
  Na  Na5  1  0.672431  0.250000  0.422431  1
  Na  Na6  1  0.922431  0.750000  0.172431  1
  Na  Na7  1  0.923986  0.152029  0.173986  1
  Bi  Bi8  1  0.000000  0.500000  0.000000  1
  Bi  Bi9  1  0.500000  0.000000  0.500000  1
  Bi  Bi10  1  0.500000  0.500000  0.000000  1
  Bi  Bi11  1  0.500000  0.000000  0.000000  1
  P  P12  1  0.125000  0.750000  0.375000  1
  P  P13  1  0.875000  0.250000  0.625000  1
  C  C14  1  0.339393  0.943119  0.768696  1
  C  C15  1  0.268696  0.443119  0.839393  1
  C  C16  1  0.717488  0.943119  0.788186  1
  C  C17  1  0.711814  0.556881  0.782512  1
  C  C18  1  0.288186  0.443119  0.217488  1
  C  C19  1  0.282512  0.056881  0.211814  1
  C  C20  1  0.731304  0.556881  0.160607  1
  C  C21  1  0.660607  0.056881  0.231304  1
  O  O22  1  0.330751  0.820004  0.881297  1
  O  O23  1  0.069953  0.876748  0.431033  1
  O  O24  1  0.351534  0.941759  0.647664  1
  O  O25  1  0.147664  0.441759  0.851534  1
  O  O26  1  0.706706  0.941759  0.910577  1
  O  O27  1  0.277869  0.569761  0.833322  1
  O  O28  1  0.053299  0.876748  0.192219  1
  O  O29  1  0.068967  0.623252  0.430047  1
  O  O30  1  0.403083  0.930239  0.347630  1
  O  O31  1  0.589423  0.558241  0.793294  1
  O  O32  1  0.381297  0.320004  0.830751  1
  O  O33  1  0.307781  0.623252  0.446701  1
  O  O34  1  0.849245  0.820004  0.798699  1
  O  O35  1  0.701301  0.679996  0.650755  1
  O  O36  1  0.333322  0.069761  0.777869  1
  O  O37  1  0.152370  0.569761  0.096917  1
  O  O38  1  0.847630  0.430239  0.903083  1
  O  O39  1  0.666678  0.930239  0.222131  1
  O  O40  1  0.298699  0.320004  0.349245  1
  O  O41  1  0.150755  0.179996  0.201301  1
  O  O42  1  0.692219  0.376748  0.553299  1
  O  O43  1  0.618703  0.679996  0.169249  1
  O  O44  1  0.410577  0.441759  0.206706  1
  O  O45  1  0.596917  0.069761  0.652370  1
  O  O46  1  0.931033  0.376748  0.569953  1
  O  O47  1  0.946701  0.123252  0.807781  1
  O  O48  1  0.722131  0.430239  0.166678  1
  O  O49  1  0.293294  0.058241  0.089423  1
  O  O50  1  0.852336  0.558241  0.148466  1
  O  O51  1  0.648466  0.058241  0.352336  1
  O  O52  1  0.930047  0.123252  0.568967  1
  O  O53  1  0.669249  0.179996  0.118703  1
