# generated using pymatgen
data_Na4Mn2As(CO4)4
_symmetry_space_group_name_H-M   'P 1'
_cell_length_a   10.10643807
_cell_length_b   9.92648377
_cell_length_c   10.10643834
_cell_angle_alpha   58.98129036
_cell_angle_beta   89.29613732
_cell_angle_gamma   58.98129612
_symmetry_Int_Tables_number   1
_chemical_formula_structural   Na4Mn2As(CO4)4
_chemical_formula_sum   'Na8 Mn4 As2 C8 O32'
_cell_volume   698.97415385
_cell_formula_units_Z   2
loop_
 _symmetry_equiv_pos_site_id
 _symmetry_equiv_pos_as_xyz
  1  'x, y, z'
loop_
 _atom_site_type_symbol
 _atom_site_label
 _atom_site_symmetry_multiplicity
 _atom_site_fract_x
 _atom_site_fract_y
 _atom_site_fract_z
 _atom_site_occupancy
  Na  Na0  1  0.088180  0.823641  0.838180  1
  Na  Na1  1  0.084916  0.250000  0.834916  1
  Na  Na2  1  0.334916  0.750000  0.584916  1
  Na  Na3  1  0.338180  0.323641  0.588180  1
  Na  Na4  1  0.661820  0.676359  0.411820  1
  Na  Na5  1  0.665084  0.250000  0.415084  1
  Na  Na6  1  0.915084  0.750000  0.165084  1
  Na  Na7  1  0.911820  0.176359  0.161820  1
  Mn  Mn8  1  0.000000  0.500000  0.000000  1
  Mn  Mn9  1  0.500000  0.000000  0.500000  1
  Mn  Mn10  1  0.500000  0.500000  0.000000  1
  Mn  Mn11  1  0.500000  0.000000  0.000000  1
  As  As12  1  0.125000  0.750000  0.375000  1
  As  As13  1  0.875000  0.250000  0.625000  1
  C  C14  1  0.360725  0.928247  0.776745  1
  C  C15  1  0.276745  0.428247  0.860725  1
  C  C16  1  0.711029  0.928247  0.795008  1
  C  C17  1  0.704992  0.571753  0.788971  1
  C  C18  1  0.295008  0.428247  0.211029  1
  C  C19  1  0.288971  0.071753  0.204992  1
  C  C20  1  0.723255  0.571753  0.139276  1
  C  C21  1  0.639275  0.071753  0.223255  1
  O  O22  1  0.355698  0.785031  0.889337  1
  O  O23  1  0.057195  0.898239  0.438419  1
  O  O24  1  0.371033  0.948711  0.639011  1
  O  O25  1  0.139011  0.448711  0.871033  1
  O  O26  1  0.680256  0.948711  0.912277  1
  O  O27  1  0.300194  0.548125  0.848803  1
  O  O28  1  0.044566  0.898239  0.163342  1
  O  O29  1  0.061581  0.601761  0.442805  1
  O  O30  1  0.396929  0.951875  0.348319  1
  O  O31  1  0.587723  0.551289  0.819744  1
  O  O32  1  0.389337  0.285031  0.855698  1
  O  O33  1  0.336658  0.601761  0.455434  1
  O  O34  1  0.859272  0.785031  0.825632  1
  O  O35  1  0.674368  0.714969  0.640728  1
  O  O36  1  0.348803  0.048125  0.800194  1
  O  O37  1  0.151681  0.548125  0.103071  1
  O  O38  1  0.848319  0.451875  0.896929  1
  O  O39  1  0.651197  0.951875  0.199806  1
  O  O40  1  0.325632  0.285031  0.359272  1
  O  O41  1  0.140728  0.214969  0.174368  1
  O  O42  1  0.663342  0.398239  0.544566  1
  O  O43  1  0.610663  0.714969  0.144302  1
  O  O44  1  0.412277  0.448711  0.180256  1
  O  O45  1  0.603071  0.048125  0.651681  1
  O  O46  1  0.938419  0.398239  0.557195  1
  O  O47  1  0.955434  0.101761  0.836658  1
  O  O48  1  0.699806  0.451875  0.151197  1
  O  O49  1  0.319744  0.051289  0.087723  1
  O  O50  1  0.860989  0.551289  0.128967  1
  O  O51  1  0.628967  0.051289  0.360989  1
  O  O52  1  0.942805  0.101761  0.561581  1
  O  O53  1  0.644302  0.214969  0.110663  1
