# generated using pymatgen
data_NaCu(PO3)4
_symmetry_space_group_name_H-M   'P 1'
_cell_length_a   8.07633036
_cell_length_b   8.07632969
_cell_length_c   7.99887720
_cell_angle_alpha   86.88925979
_cell_angle_beta   93.11074254
_cell_angle_gamma   71.62460226
_symmetry_Int_Tables_number   1
_chemical_formula_structural   NaCu(PO3)4
_chemical_formula_sum   'Na2 Cu2 P8 O24'
_cell_volume   493.00672346
_cell_formula_units_Z   2
loop_
 _symmetry_equiv_pos_site_id
 _symmetry_equiv_pos_as_xyz
  1  'x, y, z'
loop_
 _atom_site_type_symbol
 _atom_site_label
 _atom_site_symmetry_multiplicity
 _atom_site_fract_x
 _atom_site_fract_y
 _atom_site_fract_z
 _atom_site_occupancy
  Na  Na0  1  0.522192  0.189610  0.196009  1
  Na  Na1  1  0.810390  0.477808  0.696009  1
  Cu  Cu2  1  0.143444  0.131313  0.756511  1
  Cu  Cu3  1  0.868687  0.856556  0.256511  1
  P  P4  1  0.060201  0.788454  0.677697  1
  P  P5  1  0.246734  0.446239  0.875271  1
  P  P6  1  0.445044  0.243695  0.621146  1
  P  P7  1  0.211546  0.939799  0.177697  1
  P  P8  1  0.787034  0.060884  0.825139  1
  P  P9  1  0.553761  0.753266  0.375271  1
  P  P10  1  0.756305  0.554956  0.121146  1
  P  P11  1  0.939116  0.212966  0.325139  1
  O  O12  1  0.126514  0.125550  0.255287  1
  O  O13  1  0.106114  0.364480  0.813002  1
  O  O14  1  0.037273  0.701837  0.523525  1
  O  O15  1  0.159854  0.653580  0.834485  1
  O  O16  1  0.071762  0.849222  0.153056  1
  O  O17  1  0.364785  0.104326  0.684023  1
  O  O18  1  0.150778  0.928238  0.653056  1
  O  O19  1  0.317072  0.407821  0.051287  1
  O  O20  1  0.397947  0.400789  0.745402  1
  O  O21  1  0.419588  0.305284  0.442230  1
  O  O22  1  0.346420  0.840146  0.334485  1
  O  O23  1  0.298163  0.962727  0.023525  1
  O  O24  1  0.699310  0.048849  0.981204  1
  O  O25  1  0.653751  0.161885  0.668723  1
  O  O26  1  0.592179  0.682928  0.551287  1
  O  O27  1  0.599211  0.602053  0.245402  1
  O  O28  1  0.694716  0.580412  0.942230  1
  O  O29  1  0.844222  0.074541  0.339926  1
  O  O30  1  0.635520  0.893886  0.313002  1
  O  O31  1  0.925459  0.155778  0.839926  1
  O  O32  1  0.838115  0.346249  0.168723  1
  O  O33  1  0.951151  0.300690  0.481204  1
  O  O34  1  0.895674  0.635215  0.184023  1
  O  O35  1  0.874450  0.873486  0.755287  1
