# generated using pymatgen
data_NaTi2(PO4)3
_symmetry_space_group_name_H-M   'P 1'
_cell_length_a   12.26282966
_cell_length_b   8.71591675
_cell_length_c   8.80181373
_cell_angle_alpha   90.07806302
_cell_angle_beta   90.08048320
_cell_angle_gamma   89.28735776
_symmetry_Int_Tables_number   1
_chemical_formula_structural   NaTi2(PO4)3
_chemical_formula_sum   'Na4 Ti8 P12 O48'
_cell_volume   940.67916956
_cell_formula_units_Z   4
loop_
 _symmetry_equiv_pos_site_id
 _symmetry_equiv_pos_as_xyz
  1  'x, y, z'
loop_
 _atom_site_type_symbol
 _atom_site_label
 _atom_site_symmetry_multiplicity
 _atom_site_fract_x
 _atom_site_fract_y
 _atom_site_fract_z
 _atom_site_occupancy
  Na  Na0  1  0.167560  0.293793  0.202552  1
  Na  Na1  1  0.318847  0.178952  0.715120  1
  Na  Na2  1  0.686146  0.581109  0.448731  1
  Na  Na3  1  0.813247  0.918349  0.949141  1
  Ti  Ti4  1  0.107623  0.248170  0.531948  1
  Ti  Ti5  1  0.116946  0.750651  0.031399  1
  Ti  Ti6  1  0.393058  0.255123  0.032887  1
  Ti  Ti7  1  0.382276  0.749619  0.532403  1
  Ti  Ti8  1  0.608236  0.738949  0.971700  1
  Ti  Ti9  1  0.614777  0.239154  0.469873  1
  Ti  Ti10  1  0.891534  0.758253  0.470892  1
  Ti  Ti11  1  0.885176  0.260434  0.968460  1
  P  P12  1  0.004842  0.973342  0.748303  1
  P  P13  1  0.998859  0.028495  0.246952  1
  P  P14  1  0.145637  0.611867  0.390635  1
  P  P15  1  0.144519  0.394606  0.884583  1
  P  P16  1  0.355590  0.107256  0.387468  1
  P  P17  1  0.354816  0.885567  0.894159  1
  P  P18  1  0.496049  0.529546  0.249043  1
  P  P19  1  0.499607  0.468137  0.748088  1
  P  P20  1  0.646215  0.111123  0.110655  1
  P  P21  1  0.644654  0.886756  0.614426  1
  P  P22  1  0.855126  0.612651  0.115007  1
  P  P23  1  0.853837  0.390100  0.610645  1
  O  O24  1  0.036425  0.684876  0.441263  1
  O  O25  1  0.038837  0.326260  0.948895  1
  O  O26  1  0.068487  0.868451  0.857776  1
  O  O27  1  0.065534  0.139117  0.347745  1
  O  O28  1  0.082308  0.928452  0.160399  1
  O  O29  1  0.087403  0.064906  0.654161  1
  O  O30  1  0.140253  0.435344  0.412760  1
  O  O31  1  0.143229  0.569339  0.904282  1
  O  O32  1  0.164326  0.638488  0.219162  1
  O  O33  1  0.163430  0.350041  0.716511  1
  O  O34  1  0.235780  0.678573  0.492773  1
  O  O35  1  0.239618  0.321059  0.978278  1
  O  O36  1  0.263937  0.815424  0.991508  1
  O  O37  1  0.260934  0.180634  0.481270  1
  O  O38  1  0.337515  0.154576  0.219815  1
  O  O39  1  0.336465  0.868561  0.721115  1
  O  O40  1  0.354296  0.932143  0.406824  1
  O  O41  1  0.360925  0.060020  0.926747  1
  O  O42  1  0.415713  0.441013  0.147182  1
  O  O43  1  0.418751  0.575398  0.664742  1
  O  O44  1  0.430408  0.631840  0.358701  1
  O  O45  1  0.431179  0.351361  0.838786  1
  O  O46  1  0.463087  0.808752  0.941819  1
  O  O47  1  0.462755  0.171477  0.451562  1
  O  O48  1  0.538604  0.191327  0.060201  1
  O  O49  1  0.536810  0.817219  0.559919  1
  O  O50  1  0.569884  0.635540  0.154878  1
  O  O51  1  0.571442  0.376562  0.636308  1
  O  O52  1  0.573866  0.420688  0.335160  1
  O  O53  1  0.577692  0.558661  0.851900  1
  O  O54  1  0.642132  0.937166  0.082647  1
  O  O55  1  0.645287  0.063288  0.592168  1
  O  O56  1  0.662882  0.141796  0.281896  1
  O  O57  1  0.664892  0.850930  0.784133  1
  O  O58  1  0.736700  0.816150  0.514129  1
  O  O59  1  0.738992  0.176046  0.010946  1
  O  O60  1  0.762693  0.322992  0.509547  1
  O  O61  1  0.763173  0.683084  0.014686  1
  O  O62  1  0.833927  0.643410  0.285307  1
  O  O63  1  0.836959  0.357840  0.781182  1
  O  O64  1  0.856243  0.436765  0.089291  1
  O  O65  1  0.856823  0.564614  0.585013  1
  O  O66  1  0.919469  0.932030  0.341123  1
  O  O67  1  0.924613  0.078656  0.834711  1
  O  O68  1  0.933185  0.869771  0.647574  1
  O  O69  1  0.930894  0.128692  0.138089  1
  O  O70  1  0.962649  0.684897  0.063027  1
  O  O71  1  0.963275  0.314867  0.560982  1
