# generated using pymatgen
data_Na3Ni2P2(CO7)2
_symmetry_space_group_name_H-M   'P 1'
_cell_length_a   8.89440860
_cell_length_b   8.20081336
_cell_length_c   8.22291504
_cell_angle_alpha   77.68286930
_cell_angle_beta   88.95558500
_cell_angle_gamma   91.06721165
_symmetry_Int_Tables_number   1
_chemical_formula_structural   Na3Ni2P2(CO7)2
_chemical_formula_sum   'Na6 Ni4 P4 C4 O28'
_cell_volume   585.73174226
_cell_formula_units_Z   2
loop_
 _symmetry_equiv_pos_site_id
 _symmetry_equiv_pos_as_xyz
  1  'x, y, z'
loop_
 _atom_site_type_symbol
 _atom_site_label
 _atom_site_symmetry_multiplicity
 _atom_site_fract_x
 _atom_site_fract_y
 _atom_site_fract_z
 _atom_site_occupancy
  Na  Na0  1  0.753718  0.617893  0.368118  1
  Na  Na1  1  0.763931  0.370133  0.130184  1
  Na  Na2  1  0.743341  0.888259  0.657810  1
  Na  Na3  1  0.245271  0.622990  0.864799  1
  Na  Na4  1  0.239058  0.381689  0.620360  1
  Na  Na5  1  0.250750  0.907852  0.138714  1
  Ni  Ni6  1  0.656343  0.016605  0.231992  1
  Ni  Ni7  1  0.657869  0.513124  0.730569  1
  Ni  Ni8  1  0.344384  0.983206  0.765168  1
  Ni  Ni9  1  0.341460  0.477677  0.265567  1
  P  P10  1  0.568305  0.235073  0.509673  1
  P  P11  1  0.572845  0.729723  0.023081  1
  P  P12  1  0.430245  0.266528  0.979708  1
  P  P13  1  0.430192  0.766652  0.485084  1
  C  C14  1  0.920371  0.483598  0.763363  1
  C  C15  1  0.918816  0.983735  0.271864  1
  C  C16  1  0.080286  0.013232  0.734215  1
  C  C17  1  0.079543  0.520202  0.233769  1
  O  O18  1  0.944382  0.032426  0.717419  1
  O  O19  1  0.942029  0.538704  0.214286  1
  O  O20  1  0.855073  0.598594  0.651171  1
  O  O21  1  0.856759  0.094066  0.153960  1
  O  O22  1  0.817909  0.386602  0.854704  1
  O  O23  1  0.809834  0.895872  0.368266  1
  O  O24  1  0.673713  0.671675  0.891277  1
  O  O25  1  0.673249  0.181019  0.376042  1
  O  O26  1  0.673113  0.368333  0.561347  1
  O  O27  1  0.679030  0.851542  0.090566  1
  O  O28  1  0.577914  0.193930  0.056240  1
  O  O29  1  0.582069  0.695739  0.556292  1
  O  O30  1  0.530247  0.083450  0.657675  1
  O  O31  1  0.533012  0.574319  0.168911  1
  O  O32  1  0.469410  0.415516  0.827043  1
  O  O33  1  0.468330  0.911653  0.330859  1
  O  O34  1  0.423755  0.807690  0.951374  1
  O  O35  1  0.416850  0.303780  0.439446  1
  O  O36  1  0.326622  0.134763  0.920586  1
  O  O37  1  0.330753  0.821087  0.621431  1
  O  O38  1  0.319826  0.332570  0.097445  1
  O  O39  1  0.327411  0.633241  0.431931  1
  O  O40  1  0.186840  0.104678  0.640732  1
  O  O41  1  0.185613  0.615076  0.142324  1
  O  O42  1  0.140915  0.404133  0.345293  1
  O  O43  1  0.145961  0.899332  0.848565  1
  O  O44  1  0.058807  0.471047  0.778719  1
  O  O45  1  0.053844  0.960837  0.291903  1
