# generated using pymatgen
data_Na4Ti11O24
_symmetry_space_group_name_H-M   'P 1'
_cell_length_a   6.14078603
_cell_length_b   10.48569857
_cell_length_c   8.74621496
_cell_angle_alpha   66.06615587
_cell_angle_beta   92.24482333
_cell_angle_gamma   73.94363061
_symmetry_Int_Tables_number   1
_chemical_formula_structural   Na4Ti11O24
_chemical_formula_sum   'Na4 Ti11 O24'
_cell_volume   487.26634838
_cell_formula_units_Z   1
loop_
 _symmetry_equiv_pos_site_id
 _symmetry_equiv_pos_as_xyz
  1  'x, y, z'
loop_
 _atom_site_type_symbol
 _atom_site_label
 _atom_site_symmetry_multiplicity
 _atom_site_fract_x
 _atom_site_fract_y
 _atom_site_fract_z
 _atom_site_occupancy
  Na  Na0  1  0.510608  0.010065  0.742743  1
  Na  Na1  1  0.187445  0.656667  0.419373  1
  Na  Na2  1  0.583501  0.333323  0.708944  1
  Na  Na3  1  0.819957  0.333443  0.091895  1
  Ti  Ti4  1  0.077552  0.332953  0.707210  1
  Ti  Ti5  1  0.231875  0.497334  0.876754  1
  Ti  Ti6  1  0.083777  0.831512  0.710254  1
  Ti  Ti7  1  0.395835  0.169747  0.040858  1
  Ti  Ti8  1  0.255999  0.993572  0.377015  1
  Ti  Ti9  1  0.411290  0.670940  0.038331  1
  Ti  Ti10  1  0.581939  0.835205  0.208288  1
  Ti  Ti11  1  0.932531  0.172479  0.538506  1
  Ti  Ti12  1  0.771718  0.494044  0.378069  1
  Ti  Ti13  1  0.748615  0.996029  0.375740  1
  Ti  Ti14  1  0.916660  0.672675  0.037693  1
  O  O15  1  0.090293  0.333349  0.941570  1
  O  O16  1  0.078724  0.333167  0.475900  1
  O  O17  1  0.228378  0.485803  0.671550  1
  O  O18  1  0.380969  0.181076  0.824020  1
  O  O19  1  0.099437  0.820396  0.942932  1
  O  O20  1  0.067723  0.847266  0.473157  1
  O  O21  1  0.426738  0.130301  0.305651  1
  O  O22  1  0.223744  0.536577  0.102847  1
  O  O23  1  0.502249  0.333404  0.986305  1
  O  O24  1  0.372503  0.662560  0.816841  1
  O  O25  1  0.229579  0.989406  0.606132  1
  O  O26  1  0.701786  0.004184  0.146087  1
  O  O27  1  0.280129  0.989195  0.154178  1
  O  O28  1  0.794172  0.003266  0.600177  1
  O  O29  1  0.464305  0.663377  0.270042  1
  O  O30  1  0.662402  0.333304  0.427756  1
  O  O31  1  0.581349  0.819679  0.987227  1
  O  O32  1  0.586426  0.846397  0.429997  1
  O  O33  1  0.940256  0.179893  0.746271  1
  O  O34  1  0.786815  0.486652  0.593018  1
  O  O35  1  0.943961  0.129271  0.316268  1
  O  O36  1  0.739712  0.537603  0.111930  1
  O  O37  1  0.885707  0.677039  0.262415  1
  O  O38  1  0.936192  0.677304  0.810146  1
