# generated using pymatgen
data_Na2FeBAsO7
_symmetry_space_group_name_H-M   'P 1'
_cell_length_a   9.00732031
_cell_length_b   7.08160973
_cell_length_c   5.31258175
_cell_angle_alpha   90.00000000
_cell_angle_beta   87.49390649
_cell_angle_gamma   90.00000000
_symmetry_Int_Tables_number   1
_chemical_formula_structural   Na2FeBAsO7
_chemical_formula_sum   'Na4 Fe2 B2 As2 O14'
_cell_volume   338.54597422
_cell_formula_units_Z   2
loop_
 _symmetry_equiv_pos_site_id
 _symmetry_equiv_pos_as_xyz
  1  'x, y, z'
loop_
 _atom_site_type_symbol
 _atom_site_label
 _atom_site_symmetry_multiplicity
 _atom_site_fract_x
 _atom_site_fract_y
 _atom_site_fract_z
 _atom_site_occupancy
  Na  Na0  1  0.219654  0.000212  0.236564  1
  Na  Na1  1  0.219654  0.499788  0.236564  1
  Na  Na2  1  0.780346  0.500212  0.763436  1
  Na  Na3  1  0.780346  0.999788  0.763436  1
  Fe  Fe4  1  0.337871  0.750000  0.785599  1
  Fe  Fe5  1  0.662129  0.250000  0.214401  1
  B  B6  1  0.075281  0.750000  0.726004  1
  B  B7  1  0.924719  0.250000  0.273996  1
  As  As8  1  0.424541  0.250000  0.724578  1
  As  As9  1  0.575459  0.750000  0.275422  1
  O  O10  1  0.068504  0.250000  0.304830  1
  O  O11  1  0.148494  0.750000  0.955304  1
  O  O12  1  0.193531  0.750000  0.538296  1
  O  O13  1  0.322889  0.053309  0.793727  1
  O  O14  1  0.322889  0.446691  0.793727  1
  O  O15  1  0.408575  0.750000  0.121530  1
  O  O16  1  0.477729  0.250000  0.401132  1
  O  O17  1  0.522271  0.750000  0.598868  1
  O  O18  1  0.591425  0.250000  0.878470  1
  O  O19  1  0.677111  0.553309  0.206273  1
  O  O20  1  0.677111  0.946691  0.206273  1
  O  O21  1  0.806469  0.250000  0.461704  1
  O  O22  1  0.851506  0.250000  0.044696  1
  O  O23  1  0.931496  0.750000  0.695170  1
