# generated using pymatgen
data_Mn15O32
_symmetry_space_group_name_H-M   'P 1'
_cell_length_a   5.75640847
_cell_length_b   5.76836224
_cell_length_c   19.05081833
_cell_angle_alpha   98.23873144
_cell_angle_beta   98.67971997
_cell_angle_gamma   60.07936118
_symmetry_Int_Tables_number   1
_chemical_formula_structural   Mn15O32
_chemical_formula_sum   'Mn15 O32'
_cell_volume   540.28081387
_cell_formula_units_Z   1
loop_
 _symmetry_equiv_pos_site_id
 _symmetry_equiv_pos_as_xyz
  1  'x, y, z'
loop_
 _atom_site_type_symbol
 _atom_site_label
 _atom_site_symmetry_multiplicity
 _atom_site_fract_x
 _atom_site_fract_y
 _atom_site_fract_z
 _atom_site_occupancy
  Mn  Mn0  1  0.128385  0.618968  0.875694  1
  Mn  Mn1  1  0.375000  0.875000  0.625000  1
  Mn  Mn2  1  0.123503  0.627259  0.374304  1
  Mn  Mn3  1  0.628432  0.619055  0.875711  1
  Mn  Mn4  1  0.751078  0.748335  0.750357  1
  Mn  Mn5  1  0.875000  0.875000  0.625000  1
  Mn  Mn6  1  0.251107  0.241685  0.243966  1
  Mn  Mn7  1  0.121568  0.130945  0.374289  1
  Mn  Mn8  1  0.375000  0.375000  0.125000  1
  Mn  Mn9  1  0.498893  0.508315  0.006034  1
  Mn  Mn10  1  0.626497  0.122741  0.875696  1
  Mn  Mn11  1  0.875000  0.375000  0.625000  1
  Mn  Mn12  1  0.621615  0.131032  0.374306  1
  Mn  Mn13  1  0.875000  0.375000  0.125000  1
  Mn  Mn14  1  0.998922  0.001665  0.499643  1
  O  O15  1  0.168631  0.728736  0.566171  1
  O  O16  1  0.023623  0.579286  0.683950  1
  O  O17  1  0.270019  0.836053  0.433909  1
  O  O18  1  0.479981  0.913947  0.816091  1
  O  O19  1  0.335552  0.764085  0.934960  1
  O  O20  1  0.072849  0.538050  0.183530  1
  O  O21  1  0.229133  0.631691  0.055694  1
  O  O22  1  0.690279  0.692514  0.573119  1
  O  O23  1  0.812420  0.802374  0.927083  1
  O  O24  1  0.922262  0.914014  0.816092  1
  O  O25  1  0.337175  0.321880  0.932716  1
  O  O26  1  0.441809  0.439598  0.823066  1
  O  O27  1  0.581067  0.579200  0.683949  1
  O  O28  1  0.054911  0.118561  0.194372  1
  O  O29  1  0.168933  0.170800  0.566051  1
  O  O30  1  0.827738  0.835986  0.433908  1
  O  O31  1  0.308191  0.310402  0.426934  1
  O  O32  1  0.412825  0.428120  0.317284  1
  O  O33  1  0.179685  0.218836  0.077862  1
  O  O34  1  0.937580  0.947626  0.322917  1
  O  O35  1  0.059721  0.057486  0.676881  1
  O  O36  1  0.570315  0.531164  0.172138  1
  O  O37  1  0.695089  0.631439  0.055628  1
  O  O38  1  0.921134  0.474436  0.816689  1
  O  O39  1  0.773796  0.321911  0.932718  1
  O  O40  1  0.520867  0.118309  0.194306  1
  O  O41  1  0.414448  0.985915  0.315040  1
  O  O42  1  0.677151  0.211950  0.066470  1
  O  O43  1  0.726377  0.170714  0.566050  1
  O  O44  1  0.581369  0.021264  0.683829  1
  O  O45  1  0.976204  0.428089  0.317282  1
  O  O46  1  0.828866  0.275564  0.433311  1
