# generated using pymatgen
data_Li3Mn2P2(CO7)2
_symmetry_space_group_name_H-M   'P 1'
_cell_length_a   8.27889561
_cell_length_b   5.03983615
_cell_length_c   6.35187800
_cell_angle_alpha   89.93438246
_cell_angle_beta   89.76124808
_cell_angle_gamma   85.96690703
_symmetry_Int_Tables_number   1
_chemical_formula_structural   Li3Mn2P2(CO7)2
_chemical_formula_sum   'Li3 Mn2 P2 C2 O14'
_cell_volume   264.36881224
_cell_formula_units_Z   1
loop_
 _symmetry_equiv_pos_site_id
 _symmetry_equiv_pos_as_xyz
  1  'x, y, z'
loop_
 _atom_site_type_symbol
 _atom_site_label
 _atom_site_symmetry_multiplicity
 _atom_site_fract_x
 _atom_site_fract_y
 _atom_site_fract_z
 _atom_site_occupancy
  Li  Li0  1  0.273889  0.243370  0.046450  1
  Li  Li1  1  0.729830  0.749090  0.529098  1
  Li  Li2  1  0.901972  0.234661  0.756404  1
  Mn  Mn3  1  0.327730  0.805747  0.745397  1
  Mn  Mn4  1  0.674729  0.202110  0.243803  1
  P  P5  1  0.422382  0.724488  0.250549  1
  P  P6  1  0.579436  0.280432  0.748992  1
  C  C7  1  0.041507  0.708778  0.749938  1
  C  C8  1  0.953788  0.293766  0.250404  1
  O  O9  1  0.074340  0.957158  0.752836  1
  O  O10  1  0.096285  0.343412  0.232425  1
  O  O11  1  0.171077  0.539515  0.766605  1
  O  O12  1  0.323439  0.826641  0.057231  1
  O  O13  1  0.314960  0.795601  0.442470  1
  O  O14  1  0.417523  0.147998  0.764496  1
  O  O15  1  0.466219  0.416793  0.229424  1
  O  O16  1  0.544912  0.584224  0.726668  1
  O  O17  1  0.585146  0.860003  0.265537  1
  O  O18  1  0.693810  0.204996  0.936696  1
  O  O19  1  0.688654  0.172555  0.562416  1
  O  O20  1  0.828737  0.475867  0.267269  1
  O  O21  1  0.902779  0.624624  0.728665  1
  O  O22  1  0.897693  0.052601  0.248598  1
