# generated using pymatgen
data_Na2MnBPO7
_symmetry_space_group_name_H-M   'P 1'
_cell_length_a   9.04815026
_cell_length_b   6.37483138
_cell_length_c   5.31402731
_cell_angle_alpha   90.00000000
_cell_angle_beta   87.88256899
_cell_angle_gamma   90.00000000
_symmetry_Int_Tables_number   1
_chemical_formula_structural   Na2MnBPO7
_chemical_formula_sum   'Na4 Mn2 B2 P2 O14'
_cell_volume   306.30610325
_cell_formula_units_Z   2
loop_
 _symmetry_equiv_pos_site_id
 _symmetry_equiv_pos_as_xyz
  1  'x, y, z'
loop_
 _atom_site_type_symbol
 _atom_site_label
 _atom_site_symmetry_multiplicity
 _atom_site_fract_x
 _atom_site_fract_y
 _atom_site_fract_z
 _atom_site_occupancy
  Na  Na0  1  0.225341  0.003956  0.237456  1
  Na  Na1  1  0.225341  0.496044  0.237456  1
  Na  Na2  1  0.774659  0.503956  0.762544  1
  Na  Na3  1  0.774659  0.996044  0.762544  1
  Mn  Mn4  1  0.341422  0.750000  0.780110  1
  Mn  Mn5  1  0.658578  0.250000  0.219890  1
  B  B6  1  0.080095  0.750000  0.728052  1
  B  B7  1  0.919905  0.250000  0.271948  1
  P  P8  1  0.432672  0.250000  0.718311  1
  P  P9  1  0.567328  0.750000  0.281689  1
  O  O10  1  0.061739  0.250000  0.302475  1
  O  O11  1  0.157074  0.750000  0.955626  1
  O  O12  1  0.197290  0.750000  0.538425  1
  O  O13  1  0.334878  0.056526  0.790959  1
  O  O14  1  0.334878  0.443474  0.790959  1
  O  O15  1  0.424324  0.750000  0.130610  1
  O  O16  1  0.470560  0.250000  0.429266  1
  O  O17  1  0.529440  0.750000  0.570735  1
  O  O18  1  0.575676  0.250000  0.869390  1
  O  O19  1  0.665122  0.556526  0.209041  1
  O  O20  1  0.665122  0.943474  0.209041  1
  O  O21  1  0.802710  0.250000  0.461575  1
  O  O22  1  0.842926  0.250000  0.044374  1
  O  O23  1  0.938261  0.750000  0.697525  1
