# generated using pymatgen
data_NaSnPCO7
_symmetry_space_group_name_H-M   'P 1'
_cell_length_a   8.78301356
_cell_length_b   5.32939160
_cell_length_c   6.58948500
_cell_angle_alpha   90.00000000
_cell_angle_beta   90.00000000
_cell_angle_gamma   88.22876209
_symmetry_Int_Tables_number   1
_chemical_formula_structural   NaSnPCO7
_chemical_formula_sum   'Na2 Sn2 P2 C2 O14'
_cell_volume   308.29402325
_cell_formula_units_Z   2
loop_
 _symmetry_equiv_pos_site_id
 _symmetry_equiv_pos_as_xyz
  1  'x, y, z'
loop_
 _atom_site_type_symbol
 _atom_site_label
 _atom_site_symmetry_multiplicity
 _atom_site_fract_x
 _atom_site_fract_y
 _atom_site_fract_z
 _atom_site_occupancy
  Na  Na0  1  0.085548  0.770272  0.250000  1
  Na  Na1  1  0.914452  0.229728  0.750000  1
  Sn  Sn2  1  0.332132  0.780698  0.750000  1
  Sn  Sn3  1  0.667868  0.219302  0.250000  1
  P  P4  1  0.430516  0.724539  0.250000  1
  P  P5  1  0.569484  0.275461  0.750000  1
  C  C6  1  0.046161  0.702701  0.750000  1
  C  C7  1  0.953839  0.297299  0.250000  1
  O  O8  1  0.092598  0.332799  0.250000  1
  O  O9  1  0.105727  0.932406  0.750000  1
  O  O10  1  0.153967  0.520349  0.750000  1
  O  O11  1  0.325820  0.788474  0.066312  1
  O  O12  1  0.325820  0.788474  0.433688  1
  O  O13  1  0.421551  0.127933  0.750000  1
  O  O14  1  0.474927  0.440577  0.250000  1
  O  O15  1  0.525073  0.559423  0.750000  1
  O  O16  1  0.578449  0.872067  0.250000  1
  O  O17  1  0.674180  0.211526  0.566312  1
  O  O18  1  0.674180  0.211526  0.933688  1
  O  O19  1  0.846033  0.479651  0.250000  1
  O  O20  1  0.894273  0.067594  0.250000  1
  O  O21  1  0.907402  0.667201  0.750000  1
