# generated using pymatgen
data_V3O7
_symmetry_space_group_name_H-M   'P 1'
_cell_length_a   10.92074591
_cell_length_b   10.92074573
_cell_length_c   9.76203147
_cell_angle_alpha   89.99984141
_cell_angle_beta   90.00016120
_cell_angle_gamma   59.99948415
_symmetry_Int_Tables_number   1
_chemical_formula_structural   V3O7
_chemical_formula_sum   'V18 O42'
_cell_volume   1008.26148034
_cell_formula_units_Z   6
loop_
 _symmetry_equiv_pos_site_id
 _symmetry_equiv_pos_as_xyz
  1  'x, y, z'
loop_
 _atom_site_type_symbol
 _atom_site_label
 _atom_site_symmetry_multiplicity
 _atom_site_fract_x
 _atom_site_fract_y
 _atom_site_fract_z
 _atom_site_occupancy
  V  V0  1  0.116724  0.190742  0.702255  1
  V  V1  1  0.156752  0.157466  0.351808  1
  V  V2  1  0.199972  0.119467  0.001160  1
  V  V3  1  0.119460  0.680586  0.001156  1
  V  V4  1  0.157449  0.685790  0.351802  1
  V  V5  1  0.190732  0.692547  0.702256  1
  V  V6  1  0.307453  0.809268  0.202256  1
  V  V7  1  0.314209  0.842551  0.851802  1
  V  V8  1  0.692539  0.116719  0.702249  1
  V  V9  1  0.319414  0.880540  0.501156  1
  V  V10  1  0.685788  0.156753  0.351800  1
  V  V11  1  0.680583  0.199957  0.001153  1
  V  V12  1  0.800043  0.319417  0.501153  1
  V  V13  1  0.843247  0.314212  0.851800  1
  V  V14  1  0.883281  0.307461  0.202249  1
  V  V15  1  0.809258  0.883276  0.202255  1
  V  V16  1  0.842534  0.843248  0.851808  1
  V  V17  1  0.880533  0.800028  0.501160  1
  O  O18  1  0.076630  0.177113  0.168696  1
  O  O19  1  0.035255  0.253582  0.888182  1
  O  O20  1  0.174290  0.082965  0.535928  1
  O  O21  1  0.252704  0.035572  0.807933  1
  O  O22  1  0.156645  0.309595  0.667917  1
  O  O23  1  0.241828  0.240361  0.351862  1
  O  O24  1  0.035561  0.711743  0.807933  1
  O  O25  1  0.319158  0.157623  0.042337  1
  O  O26  1  0.157617  0.523244  0.042326  1
  O  O27  1  0.082951  0.742751  0.535925  1
  O  O28  1  0.240341  0.517819  0.351845  1
  O  O29  1  0.177096  0.746283  0.168696  1
  O  O30  1  0.309582  0.533770  0.667921  1
  O  O31  1  0.533762  0.156647  0.667911  1
  O  O32  1  0.253577  0.711175  0.888181  1
  O  O33  1  0.517815  0.241833  0.351846  1
  O  O34  1  0.253717  0.822904  0.668696  1
  O  O35  1  0.288825  0.746423  0.388181  1
  O  O36  1  0.523239  0.319147  0.042321  1
  O  O37  1  0.257249  0.917049  0.035925  1
  O  O38  1  0.711157  0.035256  0.888179  1
  O  O39  1  0.288257  0.964439  0.307933  1
  O  O40  1  0.746269  0.076622  0.168696  1
  O  O41  1  0.466230  0.690418  0.167921  1
  O  O42  1  0.711751  0.252685  0.807929  1
  O  O43  1  0.742749  0.174287  0.535923  1
  O  O44  1  0.482181  0.759659  0.851845  1
  O  O45  1  0.747315  0.288249  0.307929  1
  O  O46  1  0.476756  0.842383  0.542326  1
  O  O47  1  0.680853  0.476761  0.542321  1
  O  O48  1  0.825713  0.257251  0.035923  1
  O  O49  1  0.758167  0.482185  0.851846  1
  O  O50  1  0.923378  0.253732  0.668696  1
  O  O51  1  0.843353  0.466238  0.167911  1
  O  O52  1  0.690405  0.843355  0.167917  1
  O  O53  1  0.964744  0.288843  0.388179  1
  O  O54  1  0.759639  0.758172  0.851862  1
  O  O55  1  0.842377  0.680842  0.542337  1
  O  O56  1  0.746418  0.964745  0.388182  1
  O  O57  1  0.822887  0.923370  0.668696  1
  O  O58  1  0.964428  0.747296  0.307933  1
  O  O59  1  0.917035  0.825710  0.035928  1
