# generated using pymatgen
data_Ti2(PO4)3
_symmetry_space_group_name_H-M   'P 1'
_cell_length_a   8.67583605
_cell_length_b   8.67583605
_cell_length_c   8.67583634
_cell_angle_alpha   60.33134499
_cell_angle_beta   60.33134499
_cell_angle_gamma   60.33133950
_symmetry_Int_Tables_number   1
_chemical_formula_structural   Ti2(PO4)3
_chemical_formula_sum   'Ti4 P6 O24'
_cell_volume   465.22450475
_cell_formula_units_Z   2
loop_
 _symmetry_equiv_pos_site_id
 _symmetry_equiv_pos_as_xyz
  1  'x, y, z'
loop_
 _atom_site_type_symbol
 _atom_site_label
 _atom_site_symmetry_multiplicity
 _atom_site_fract_x
 _atom_site_fract_y
 _atom_site_fract_z
 _atom_site_occupancy
  Ti  Ti0  1  0.363711  0.363711  0.363711  1
  Ti  Ti1  1  0.636289  0.636289  0.636289  1
  Ti  Ti2  1  0.863711  0.863711  0.863711  1
  Ti  Ti3  1  0.136289  0.136289  0.136289  1
  P  P4  1  0.033387  0.750000  0.466613  1
  P  P5  1  0.533387  0.966613  0.250000  1
  P  P6  1  0.250000  0.533387  0.966613  1
  P  P7  1  0.750000  0.466613  0.033387  1
  P  P8  1  0.466613  0.033387  0.750000  1
  P  P9  1  0.966613  0.250000  0.533387  1
  O  O10  1  0.057357  0.916735  0.281643  1
  O  O11  1  0.083265  0.718357  0.942643  1
  O  O12  1  0.632929  0.998323  0.796650  1
  O  O13  1  0.501677  0.867071  0.703350  1
  O  O14  1  0.218357  0.583265  0.442643  1
  O  O15  1  0.557357  0.781643  0.416735  1
  O  O16  1  0.718357  0.942643  0.083265  1
  O  O17  1  0.001677  0.203350  0.367071  1
  O  O18  1  0.296650  0.498323  0.132929  1
  O  O19  1  0.132929  0.296650  0.498323  1
  O  O20  1  0.203350  0.367071  0.001677  1
  O  O21  1  0.416735  0.557357  0.781643  1
  O  O22  1  0.583265  0.442643  0.218357  1
  O  O23  1  0.796650  0.632929  0.998323  1
  O  O24  1  0.867071  0.703350  0.501677  1
  O  O25  1  0.998323  0.796650  0.632929  1
  O  O26  1  0.703350  0.501677  0.867071  1
  O  O27  1  0.281643  0.057357  0.916735  1
  O  O28  1  0.442643  0.218357  0.583265  1
  O  O29  1  0.781643  0.416735  0.557357  1
  O  O30  1  0.498323  0.132929  0.296650  1
  O  O31  1  0.367071  0.001677  0.203350  1
  O  O32  1  0.916735  0.281643  0.057357  1
  O  O33  1  0.942643  0.083265  0.718357  1
