# generated using pymatgen
data_MoO2
_symmetry_space_group_name_H-M   'P 1'
_cell_length_a   2.92435224
_cell_length_b   5.30975215
_cell_length_c   5.06124518
_cell_angle_alpha   99.27665872
_cell_angle_beta   89.99999262
_cell_angle_gamma   74.01560602
_symmetry_Int_Tables_number   1
_chemical_formula_structural   MoO2
_chemical_formula_sum   'Mo2 O4'
_cell_volume   74.48066615
_cell_formula_units_Z   2
loop_
 _symmetry_equiv_pos_site_id
 _symmetry_equiv_pos_as_xyz
  1  'x, y, z'
loop_
 _atom_site_type_symbol
 _atom_site_label
 _atom_site_symmetry_multiplicity
 _atom_site_fract_x
 _atom_site_fract_y
 _atom_site_fract_z
 _atom_site_occupancy
  Mo  Mo0  1  0.000000  0.000000  0.000000  1
  Mo  Mo1  1  0.500000  0.000000  0.500000  1
  O  O2  1  0.118024  0.763954  0.627506  1
  O  O3  1  0.618025  0.763953  0.127504  1
  O  O4  1  0.381978  0.236048  0.872497  1
  O  O5  1  0.881979  0.236047  0.372494  1
