# generated using pymatgen
data_Li2MnPCO7
_symmetry_space_group_name_H-M   'P 1'
_cell_length_a   8.40488512
_cell_length_b   5.00128641
_cell_length_c   6.41699665
_cell_angle_alpha   90.01738476
_cell_angle_beta   89.23543214
_cell_angle_gamma   86.53305502
_symmetry_Int_Tables_number   1
_chemical_formula_structural   Li2MnPCO7
_chemical_formula_sum   'Li4 Mn2 P2 C2 O14'
_cell_volume   269.22217744
_cell_formula_units_Z   2
loop_
 _symmetry_equiv_pos_site_id
 _symmetry_equiv_pos_as_xyz
  1  'x, y, z'
loop_
 _atom_site_type_symbol
 _atom_site_label
 _atom_site_symmetry_multiplicity
 _atom_site_fract_x
 _atom_site_fract_y
 _atom_site_fract_z
 _atom_site_occupancy
  Li  Li0  1  0.265243  0.254305  0.038807  1
  Li  Li1  1  0.264107  0.253896  0.466566  1
  Li  Li2  1  0.731540  0.747412  0.532519  1
  Li  Li3  1  0.892458  0.225419  0.764142  1
  Mn  Mn4  1  0.335571  0.807184  0.752024  1
  Mn  Mn5  1  0.678674  0.188611  0.245290  1
  P  P6  1  0.416467  0.732669  0.254513  1
  P  P7  1  0.583242  0.281952  0.744252  1
  C  C8  1  0.043794  0.709626  0.740904  1
  C  C9  1  0.959586  0.275044  0.257699  1
  O  O10  1  0.069450  0.961518  0.750683  1
  O  O11  1  0.101601  0.344246  0.255745  1
  O  O12  1  0.175361  0.542017  0.755317  1
  O  O13  1  0.327212  0.841376  0.058336  1
  O  O14  1  0.313906  0.840320  0.444104  1
  O  O15  1  0.416045  0.162130  0.751085  1
  O  O16  1  0.435592  0.421484  0.253136  1
  O  O17  1  0.552952  0.586181  0.713562  1
  O  O18  1  0.585071  0.845241  0.264480  1
  O  O19  1  0.683539  0.208811  0.937541  1
  O  O20  1  0.690297  0.160108  0.564197  1
  O  O21  1  0.834989  0.456034  0.262882  1
  O  O22  1  0.910000  0.613477  0.717357  1
  O  O23  1  0.917081  0.031276  0.251045  1
