# generated using pymatgen
data_Na4Bi2B4SO16
_symmetry_space_group_name_H-M   'P 1'
_cell_length_a   10.25662978
_cell_length_b   10.03122450
_cell_length_c   10.25662921
_cell_angle_alpha   61.06284559
_cell_angle_beta   93.07061580
_cell_angle_gamma   61.06284243
_symmetry_Int_Tables_number   1
_chemical_formula_structural   Na4Bi2B4SO16
_chemical_formula_sum   'Na8 Bi4 B8 S2 O32'
_cell_volume   749.03888927
_cell_formula_units_Z   2
loop_
 _symmetry_equiv_pos_site_id
 _symmetry_equiv_pos_as_xyz
  1  'x, y, z'
loop_
 _atom_site_type_symbol
 _atom_site_label
 _atom_site_symmetry_multiplicity
 _atom_site_fract_x
 _atom_site_fract_y
 _atom_site_fract_z
 _atom_site_occupancy
  Na  Na0  1  0.079382  0.841236  0.829382  1
  Na  Na1  1  0.080121  0.250000  0.830121  1
  Na  Na2  1  0.330121  0.750000  0.580121  1
  Na  Na3  1  0.329382  0.341236  0.579382  1
  Na  Na4  1  0.670618  0.658764  0.420618  1
  Na  Na5  1  0.669879  0.250000  0.419879  1
  Na  Na6  1  0.919879  0.750000  0.169879  1
  Na  Na7  1  0.920618  0.158764  0.170618  1
  Bi  Bi8  1  0.000000  0.500000  0.000000  1
  Bi  Bi9  1  0.500000  0.000000  0.500000  1
  Bi  Bi10  1  0.500000  0.500000  0.000000  1
  Bi  Bi11  1  0.500000  0.000000  0.000000  1
  B  B12  1  0.349512  0.936749  0.774112  1
  B  B13  1  0.274112  0.436749  0.849512  1
  B  B14  1  0.713739  0.936749  0.789138  1
  B  B15  1  0.710862  0.563251  0.786261  1
  B  B16  1  0.289139  0.436749  0.213739  1
  B  B17  1  0.286261  0.063251  0.210862  1
  B  B18  1  0.725888  0.563251  0.150488  1
  B  B19  1  0.650488  0.063251  0.225888  1
  S  S20  1  0.125000  0.750000  0.375000  1
  S  S21  1  0.875000  0.250000  0.625000  1
  O  O22  1  0.341853  0.797988  0.895434  1
  O  O23  1  0.068983  0.873362  0.431816  1
  O  O24  1  0.356868  0.944857  0.636818  1
  O  O25  1  0.136818  0.444857  0.856868  1
  O  O26  1  0.698275  0.944857  0.918325  1
  O  O27  1  0.290740  0.569959  0.841330  1
  O  O28  1  0.057655  0.873362  0.194822  1
  O  O29  1  0.068184  0.626638  0.431017  1
  O  O30  1  0.411290  0.930041  0.360699  1
  O  O31  1  0.581675  0.555143  0.801725  1
  O  O32  1  0.395434  0.297988  0.841853  1
  O  O33  1  0.305178  0.626638  0.442345  1
  O  O34  1  0.860159  0.797988  0.806578  1
  O  O35  1  0.693422  0.702012  0.639841  1
  O  O36  1  0.341330  0.069959  0.790740  1
  O  O37  1  0.139301  0.569959  0.088710  1
  O  O38  1  0.860699  0.430041  0.911290  1
  O  O39  1  0.658670  0.930041  0.209260  1
  O  O40  1  0.306578  0.297988  0.360159  1
  O  O41  1  0.139841  0.202012  0.193422  1
  O  O42  1  0.694822  0.373362  0.557655  1
  O  O43  1  0.604566  0.702012  0.158147  1
  O  O44  1  0.418325  0.444857  0.198275  1
  O  O45  1  0.588710  0.069959  0.639301  1
  O  O46  1  0.931816  0.373362  0.568983  1
  O  O47  1  0.942345  0.126638  0.805178  1
  O  O48  1  0.709260  0.430041  0.158670  1
  O  O49  1  0.301725  0.055143  0.081675  1
  O  O50  1  0.863182  0.555143  0.143132  1
  O  O51  1  0.643132  0.055143  0.363182  1
  O  O52  1  0.931017  0.126638  0.568184  1
  O  O53  1  0.658147  0.202012  0.104566  1
