# generated using pymatgen
data_Na3(NiO2)5
_symmetry_space_group_name_H-M   'P 1'
_cell_length_a   7.16962133
_cell_length_b   4.95349278
_cell_length_c   6.40496653
_cell_angle_alpha   74.22814075
_cell_angle_beta   109.07847872
_cell_angle_gamma   81.83778756
_symmetry_Int_Tables_number   1
_chemical_formula_structural   Na3(NiO2)5
_chemical_formula_sum   'Na3 Ni5 O10'
_cell_volume   200.10875450
_cell_formula_units_Z   1
loop_
 _symmetry_equiv_pos_site_id
 _symmetry_equiv_pos_as_xyz
  1  'x, y, z'
loop_
 _atom_site_type_symbol
 _atom_site_label
 _atom_site_symmetry_multiplicity
 _atom_site_fract_x
 _atom_site_fract_y
 _atom_site_fract_z
 _atom_site_occupancy
  Na  Na0  1  0.195597  0.403814  0.698800  1
  Na  Na1  1  0.800000  0.600000  0.300000  1
  Na  Na2  1  0.404403  0.796186  0.901200  1
  Ni  Ni3  1  0.001651  0.004248  0.001172  1
  Ni  Ni4  1  0.203195  0.400928  0.199370  1
  Ni  Ni5  1  0.396805  0.799072  0.400630  1
  Ni  Ni6  1  0.598349  0.195752  0.598828  1
  Ni  Ni7  1  0.800000  0.600000  0.800000  1
  O  O8  1  0.285338  0.095320  0.097106  1
  O  O9  1  0.314663  0.104680  0.502894  1
  O  O10  1  0.128626  0.708989  0.306133  1
  O  O11  1  0.471374  0.491011  0.293867  1
  O  O12  1  0.086571  0.698639  0.899223  1
  O  O13  1  0.940050  0.317006  0.107587  1
  O  O14  1  0.513429  0.501361  0.700777  1
  O  O15  1  0.659950  0.882994  0.492413  1
  O  O16  1  0.879742  0.296532  0.697657  1
  O  O17  1  0.720258  0.903468  0.902343  1
