# generated using pymatgen
data_Cr2(PS4)3
_symmetry_space_group_name_H-M   'P 1'
_cell_length_a   17.41586379
_cell_length_b   11.57629900
_cell_length_c   9.80023817
_cell_angle_alpha   90.00000000
_cell_angle_beta   85.06323267
_cell_angle_gamma   90.00000000
_symmetry_Int_Tables_number   1
_chemical_formula_structural   Cr2(PS4)3
_chemical_formula_sum   'Cr8 P12 S48'
_cell_volume   1968.50842308
_cell_formula_units_Z   4
loop_
 _symmetry_equiv_pos_site_id
 _symmetry_equiv_pos_as_xyz
  1  'x, y, z'
loop_
 _atom_site_type_symbol
 _atom_site_label
 _atom_site_symmetry_multiplicity
 _atom_site_fract_x
 _atom_site_fract_y
 _atom_site_fract_z
 _atom_site_occupancy
  Cr  Cr0  1  0.100941  0.777914  0.107316  1
  Cr  Cr1  1  0.210389  0.268517  0.571219  1
  Cr  Cr2  1  0.289611  0.768517  0.928781  1
  Cr  Cr3  1  0.399059  0.277914  0.392684  1
  Cr  Cr4  1  0.600941  0.722086  0.607316  1
  Cr  Cr5  1  0.710389  0.231483  0.071219  1
  Cr  Cr6  1  0.789611  0.731483  0.428781  1
  Cr  Cr7  1  0.899059  0.222086  0.892684  1
  P  P8  1  0.053317  0.237857  0.724988  1
  P  P9  1  0.135969  0.690988  0.800047  1
  P  P10  1  0.252537  0.863869  0.227963  1
  P  P11  1  0.247463  0.363869  0.272037  1
  P  P12  1  0.364031  0.190988  0.699953  1
  P  P13  1  0.446683  0.737857  0.775012  1
  P  P14  1  0.553317  0.262143  0.224988  1
  P  P15  1  0.635969  0.809012  0.300047  1
  P  P16  1  0.752537  0.636131  0.727963  1
  P  P17  1  0.747463  0.136131  0.772037  1
  P  P18  1  0.864031  0.309012  0.199953  1
  P  P19  1  0.946683  0.762143  0.275012  1
  S  S20  1  0.046317  0.670525  0.291985  1
  S  S21  1  0.019846  0.125898  0.880843  1
  S  S22  1  0.073092  0.622859  0.970346  1
  S  S23  1  0.098777  0.155085  0.551726  1
  S  S24  1  0.089670  0.685909  0.628265  1
  S  S25  1  0.145954  0.941951  0.214041  1
  S  S26  1  0.140002  0.350679  0.761240  1
  S  S27  1  0.184098  0.430544  0.443175  1
  S  S28  1  0.162987  0.852009  0.887546  1
  S  S29  1  0.202221  0.369950  0.099092  1
  S  S30  1  0.227093  0.699795  0.147138  1
  S  S31  1  0.241278  0.610188  0.815071  1
  S  S32  1  0.258722  0.110188  0.684929  1
  S  S33  1  0.272907  0.199795  0.352862  1
  S  S34  1  0.297779  0.869950  0.400908  1
  S  S35  1  0.315902  0.930544  0.056826  1
  S  S36  1  0.337013  0.352009  0.612454  1
  S  S37  1  0.354046  0.441951  0.285959  1
  S  S38  1  0.359998  0.850679  0.738760  1
  S  S39  1  0.410330  0.185909  0.871735  1
  S  S40  1  0.401223  0.655085  0.948274  1
  S  S41  1  0.426908  0.122859  0.529654  1
  S  S42  1  0.453683  0.170525  0.208015  1
  S  S43  1  0.480154  0.625898  0.619157  1
  S  S44  1  0.519846  0.374102  0.380843  1
  S  S45  1  0.546317  0.829475  0.791985  1
  S  S46  1  0.573092  0.877141  0.470346  1
  S  S47  1  0.598777  0.344915  0.051726  1
  S  S48  1  0.589670  0.814091  0.128265  1
  S  S49  1  0.640002  0.149321  0.261240  1
  S  S50  1  0.645954  0.558049  0.714041  1
  S  S51  1  0.662987  0.647991  0.387546  1
  S  S52  1  0.684098  0.069456  0.943175  1
  S  S53  1  0.702221  0.130050  0.599092  1
  S  S54  1  0.727093  0.800205  0.647138  1
  S  S55  1  0.741278  0.889812  0.315071  1
  S  S56  1  0.758722  0.389812  0.184929  1
  S  S57  1  0.772907  0.300205  0.852862  1
  S  S58  1  0.797779  0.630050  0.900908  1
  S  S59  1  0.837013  0.147991  0.112454  1
  S  S60  1  0.815902  0.569456  0.556825  1
  S  S61  1  0.859998  0.649321  0.238760  1
  S  S62  1  0.854046  0.058049  0.785959  1
  S  S63  1  0.910330  0.314091  0.371735  1
  S  S64  1  0.901223  0.844915  0.448274  1
  S  S65  1  0.926908  0.377141  0.029654  1
  S  S66  1  0.980154  0.874102  0.119157  1
  S  S67  1  0.953683  0.329475  0.708015  1
