# generated using pymatgen
data_FeO2
_symmetry_space_group_name_H-M   'P 1'
_cell_length_a   5.69969676
_cell_length_b   5.69969640
_cell_length_c   5.71028843
_cell_angle_alpha   120.06148615
_cell_angle_beta   120.06149522
_cell_angle_gamma   89.80276654
_symmetry_Int_Tables_number   1
_chemical_formula_structural   FeO2
_chemical_formula_sum   'Fe4 O8'
_cell_volume   131.15469862
_cell_formula_units_Z   4
loop_
 _symmetry_equiv_pos_site_id
 _symmetry_equiv_pos_as_xyz
  1  'x, y, z'
loop_
 _atom_site_type_symbol
 _atom_site_label
 _atom_site_symmetry_multiplicity
 _atom_site_fract_x
 _atom_site_fract_y
 _atom_site_fract_z
 _atom_site_occupancy
  Fe  Fe0  1  0.500000  0.500001  0.000001  1
  Fe  Fe1  1  0.000001  0.000000  0.500000  1
  Fe  Fe2  1  0.000002  0.500001  0.000001  1
  Fe  Fe3  1  0.000000  0.500001  0.500001  1
  O  O4  1  0.765200  0.734800  0.028568  1
  O  O5  1  0.206215  0.736585  0.471400  1
  O  O6  1  0.234800  0.265200  0.971431  1
  O  O7  1  0.236586  0.706215  0.971400  1
  O  O8  1  0.793786  0.263415  0.528600  1
  O  O9  1  0.234800  0.265200  0.528568  1
  O  O10  1  0.763416  0.293784  0.028600  1
  O  O11  1  0.765202  0.734800  0.471433  1
