# generated using pymatgen
data_Na5Ni2As(CO4)4
_symmetry_space_group_name_H-M   'P 1'
_cell_length_a   9.89577396
_cell_length_b   9.88016675
_cell_length_c   9.89577396
_cell_angle_alpha   59.96930007
_cell_angle_beta   89.96271721
_cell_angle_gamma   120.03069993
_symmetry_Int_Tables_number   1
_chemical_formula_structural   Na5Ni2As(CO4)4
_chemical_formula_sum   'Na10 Ni4 As2 C8 O32'
_cell_volume   683.28707163
_cell_formula_units_Z   2
loop_
 _symmetry_equiv_pos_site_id
 _symmetry_equiv_pos_as_xyz
  1  'x, y, z'
loop_
 _atom_site_type_symbol
 _atom_site_label
 _atom_site_symmetry_multiplicity
 _atom_site_fract_x
 _atom_site_fract_y
 _atom_site_fract_z
 _atom_site_occupancy
  Na  Na0  1  0.666218  0.318535  0.094777  1
  Na  Na1  1  0.346898  0.260507  0.334273  1
  Na  Na2  1  0.905223  0.818535  0.333782  1
  Na  Na3  1  0.905220  0.239493  0.913609  1
  Na  Na4  1  0.086391  0.739493  0.094780  1
  Na  Na5  1  0.086688  0.181465  0.652318  1
  Na  Na6  1  0.665727  0.760507  0.653102  1
  Na  Na7  1  0.339887  0.250000  0.910113  1
  Na  Na8  1  0.347682  0.681465  0.913312  1
  Na  Na9  1  0.089887  0.750000  0.660113  1
  Ni  Ni10  1  0.500045  0.993715  0.002904  1
  Ni  Ni11  1  0.506329  0.006285  0.496619  1
  Ni  Ni12  1  0.503381  0.506285  0.493671  1
  Ni  Ni13  1  0.997096  0.493715  0.499955  1
  As  As14  1  0.123575  0.250000  0.126425  1
  As  As15  1  0.873575  0.750000  0.876425  1
  C  C16  1  0.712699  0.072925  0.714826  1
  C  C17  1  0.712250  0.427075  0.360226  1
  C  C18  1  0.356259  0.070622  0.714777  1
  C  C19  1  0.714601  0.429378  0.714363  1
  C  C20  1  0.285174  0.572925  0.287301  1
  C  C21  1  0.639774  0.927075  0.287750  1
  C  C22  1  0.285637  0.929378  0.285399  1
  C  C23  1  0.285223  0.570622  0.643741  1
  O  O24  1  0.646897  0.047344  0.142816  1
  O  O25  1  0.687908  0.289065  0.353425  1
  O  O26  1  0.857510  0.210935  0.601157  1
  O  O27  1  0.400705  0.048538  0.310235  1
  O  O28  1  0.857184  0.547344  0.353103  1
  O  O29  1  0.336598  0.390386  0.054197  1
  O  O30  1  0.055416  0.109614  0.053788  1
  O  O31  1  0.593869  0.448333  0.365225  1
  O  O32  1  0.686441  0.051667  0.854465  1
  O  O33  1  0.354628  0.042700  0.598517  1
  O  O34  1  0.858782  0.457300  0.688072  1
  O  O35  1  0.059084  0.399645  0.042798  1
  O  O36  1  0.057557  0.100355  0.340561  1
  O  O37  1  0.398843  0.710935  0.142490  1
  O  O38  1  0.646575  0.789065  0.312092  1
  O  O39  1  0.689765  0.548538  0.599295  1
  O  O40  1  0.309839  0.452656  0.400448  1
  O  O41  1  0.352254  0.211376  0.688286  1
  O  O42  1  0.600338  0.288624  0.859122  1
  O  O43  1  0.946212  0.609614  0.944584  1
  O  O44  1  0.945803  0.890386  0.663402  1
  O  O45  1  0.145535  0.551667  0.313559  1
  O  O46  1  0.634775  0.948333  0.406131  1
  O  O47  1  0.311928  0.957300  0.141218  1
  O  O48  1  0.401483  0.542700  0.645372  1
  O  O49  1  0.957202  0.899645  0.940916  1
  O  O50  1  0.659439  0.600355  0.942443  1
  O  O51  1  0.141226  0.451462  0.647833  1
  O  O52  1  0.599552  0.952656  0.690161  1
  O  O53  1  0.311714  0.711376  0.647746  1
  O  O54  1  0.140878  0.788624  0.399662  1
  O  O55  1  0.352167  0.951462  0.858774  1
