# generated using pymatgen
data_NaV2(PO4)3
_symmetry_space_group_name_H-M   'P 1'
_cell_length_a   8.50315399
_cell_length_b   8.81903084
_cell_length_c   11.94634588
_cell_angle_alpha   90.00000000
_cell_angle_beta   88.74133910
_cell_angle_gamma   90.00000000
_symmetry_Int_Tables_number   1
_chemical_formula_structural   NaV2(PO4)3
_chemical_formula_sum   'Na4 V8 P12 O48'
_cell_volume   895.63527499
_cell_formula_units_Z   4
loop_
 _symmetry_equiv_pos_site_id
 _symmetry_equiv_pos_as_xyz
  1  'x, y, z'
loop_
 _atom_site_type_symbol
 _atom_site_label
 _atom_site_symmetry_multiplicity
 _atom_site_fract_x
 _atom_site_fract_y
 _atom_site_fract_z
 _atom_site_occupancy
  Na  Na0  1  0.176503  0.696903  0.842494  1
  Na  Na1  1  0.323497  0.196903  0.657506  1
  Na  Na2  1  0.676503  0.803097  0.342494  1
  Na  Na3  1  0.823497  0.303097  0.157506  1
  V  V4  1  0.246996  0.966062  0.385154  1
  V  V5  1  0.244999  0.532775  0.610633  1
  V  V6  1  0.253004  0.466062  0.114846  1
  V  V7  1  0.255001  0.032775  0.889367  1
  V  V8  1  0.744999  0.967225  0.110633  1
  V  V9  1  0.746996  0.533938  0.885154  1
  V  V10  1  0.755001  0.467225  0.389367  1
  V  V11  1  0.753004  0.033938  0.614846  1
  P  P12  1  0.027991  0.249631  0.502128  1
  P  P13  1  0.110580  0.112997  0.149645  1
  P  P14  1  0.105869  0.377277  0.856367  1
  P  P15  1  0.394131  0.877277  0.643633  1
  P  P16  1  0.389420  0.612997  0.350355  1
  P  P17  1  0.472010  0.749631  0.997872  1
  P  P18  1  0.527990  0.250369  0.002128  1
  P  P19  1  0.610580  0.387003  0.649645  1
  P  P20  1  0.605869  0.122723  0.356367  1
  P  P21  1  0.894131  0.622723  0.143633  1
  P  P22  1  0.889420  0.887003  0.850355  1
  P  P23  1  0.972010  0.750369  0.497872  1
  O  O24  1  0.063623  0.641390  0.573312  1
  O  O25  1  0.072591  0.611676  0.121078  1
  O  O26  1  0.066023  0.926738  0.837995  1
  O  O27  1  0.079516  0.818928  0.404524  1
  O  O28  1  0.102109  0.123870  0.429175  1
  O  O29  1  0.119756  0.287985  0.162261  1
  O  O30  1  0.163737  0.069269  0.029254  1
  O  O31  1  0.149959  0.480396  0.754760  1
  O  O32  1  0.160743  0.338505  0.557446  1
  O  O33  1  0.160874  0.215474  0.825925  1
  O  O34  1  0.197095  0.439245  0.956579  1
  O  O35  1  0.207302  0.019355  0.231336  1
  O  O36  1  0.292698  0.519355  0.268664  1
  O  O37  1  0.302905  0.939245  0.543421  1
  O  O38  1  0.339126  0.715474  0.674075  1
  O  O39  1  0.339257  0.838505  0.942554  1
  O  O40  1  0.336263  0.569269  0.470746  1
  O  O41  1  0.350041  0.980396  0.745240  1
  O  O42  1  0.380244  0.787985  0.337739  1
  O  O43  1  0.397891  0.623870  0.070825  1
  O  O44  1  0.420484  0.318928  0.095476  1
  O  O45  1  0.427409  0.111676  0.378922  1
  O  O46  1  0.433977  0.426738  0.662005  1
  O  O47  1  0.436377  0.141391  0.926688  1
  O  O48  1  0.563623  0.858610  0.073312  1
  O  O49  1  0.566023  0.573262  0.337995  1
  O  O50  1  0.572591  0.888324  0.621078  1
  O  O51  1  0.579516  0.681072  0.904524  1
  O  O52  1  0.602109  0.376130  0.929175  1
  O  O53  1  0.619756  0.212015  0.662261  1
  O  O54  1  0.649959  0.019604  0.254760  1
  O  O55  1  0.663737  0.430731  0.529254  1
  O  O56  1  0.660743  0.161495  0.057446  1
  O  O57  1  0.660874  0.284526  0.325925  1
  O  O58  1  0.697095  0.060755  0.456579  1
  O  O59  1  0.707302  0.480645  0.731336  1
  O  O60  1  0.792698  0.980645  0.768664  1
  O  O61  1  0.802905  0.560755  0.043421  1
  O  O62  1  0.839126  0.784526  0.174075  1
  O  O63  1  0.839257  0.661495  0.442554  1
  O  O64  1  0.850041  0.519604  0.245240  1
  O  O65  1  0.836263  0.930731  0.970746  1
  O  O66  1  0.880244  0.712015  0.837739  1
  O  O67  1  0.897891  0.876130  0.570825  1
  O  O68  1  0.920484  0.181072  0.595476  1
  O  O69  1  0.933977  0.073262  0.162005  1
  O  O70  1  0.927409  0.388324  0.878922  1
  O  O71  1  0.936377  0.358610  0.426688  1
