# generated using pymatgen
data_NaV3P2O13
_symmetry_space_group_name_H-M   'P 1'
_cell_length_a   10.20059126
_cell_length_b   12.06684591
_cell_length_c   8.45337226
_cell_angle_alpha   90.00000000
_cell_angle_beta   90.00000000
_cell_angle_gamma   90.00000000
_symmetry_Int_Tables_number   1
_chemical_formula_structural   NaV3P2O13
_chemical_formula_sum   'Na4 V12 P8 O52'
_cell_volume   1040.51682471
_cell_formula_units_Z   4
loop_
 _symmetry_equiv_pos_site_id
 _symmetry_equiv_pos_as_xyz
  1  'x, y, z'
loop_
 _atom_site_type_symbol
 _atom_site_label
 _atom_site_symmetry_multiplicity
 _atom_site_fract_x
 _atom_site_fract_y
 _atom_site_fract_z
 _atom_site_occupancy
  Na  Na0  1  0.285009  0.040773  0.602824  1
  Na  Na1  1  0.285009  0.459227  0.102824  1
  Na  Na2  1  0.785009  0.959227  0.897176  1
  Na  Na3  1  0.785009  0.540773  0.397176  1
  V  V4  1  0.021826  0.363391  0.251507  1
  V  V5  1  0.021826  0.136609  0.751507  1
  V  V6  1  0.249292  0.753554  0.066086  1
  V  V7  1  0.249292  0.746446  0.566086  1
  V  V8  1  0.475354  0.366256  0.749650  1
  V  V9  1  0.475354  0.133744  0.249650  1
  V  V10  1  0.521826  0.863391  0.748493  1
  V  V11  1  0.521826  0.636609  0.248493  1
  V  V12  1  0.749292  0.246446  0.433914  1
  V  V13  1  0.749292  0.253554  0.933914  1
  V  V14  1  0.975354  0.866256  0.250350  1
  V  V15  1  0.975354  0.633744  0.750350  1
  P  P16  1  0.014147  0.118859  0.369350  1
  P  P17  1  0.014147  0.381141  0.869350  1
  P  P18  1  0.487659  0.380046  0.370753  1
  P  P19  1  0.487659  0.119954  0.870753  1
  P  P20  1  0.514147  0.881141  0.130650  1
  P  P21  1  0.514147  0.618859  0.630650  1
  P  P22  1  0.987659  0.880046  0.629247  1
  P  P23  1  0.987659  0.619954  0.129247  1
  O  O24  1  0.057772  0.207620  0.248942  1
  O  O25  1  0.057772  0.292380  0.748942  1
  O  O26  1  0.057017  0.004468  0.307395  1
  O  O27  1  0.057017  0.495532  0.807395  1
  O  O28  1  0.081851  0.138887  0.532699  1
  O  O29  1  0.081851  0.361113  0.032699  1
  O  O30  1  0.104269  0.662981  0.612318  1
  O  O31  1  0.104269  0.837019  0.112318  1
  O  O32  1  0.140041  0.621007  0.112814  1
  O  O33  1  0.140041  0.878993  0.612814  1
  O  O34  1  0.148246  0.090531  0.844515  1
  O  O35  1  0.148246  0.409469  0.344515  1
  O  O36  1  0.249661  0.749023  0.374170  1
  O  O37  1  0.249661  0.750977  0.874170  1
  O  O38  1  0.352420  0.410134  0.852211  1
  O  O39  1  0.352420  0.089866  0.352211  1
  O  O40  1  0.362520  0.624957  0.610967  1
  O  O41  1  0.362520  0.875043  0.110967  1
  O  O42  1  0.392421  0.841652  0.610426  1
  O  O43  1  0.392421  0.658348  0.110426  1
  O  O44  1  0.422844  0.143822  0.033251  1
  O  O45  1  0.422844  0.356178  0.533251  1
  O  O46  1  0.440698  0.006459  0.806107  1
  O  O47  1  0.440698  0.493541  0.306107  1
  O  O48  1  0.440888  0.206440  0.747644  1
  O  O49  1  0.440888  0.293560  0.247644  1
  O  O50  1  0.557772  0.792380  0.251058  1
  O  O51  1  0.557772  0.707620  0.751058  1
  O  O52  1  0.557017  0.504468  0.692605  1
  O  O53  1  0.557017  0.995532  0.192605  1
  O  O54  1  0.581851  0.638887  0.467301  1
  O  O55  1  0.581851  0.861113  0.967301  1
  O  O56  1  0.604269  0.162981  0.387682  1
  O  O57  1  0.604269  0.337019  0.887682  1
  O  O58  1  0.640041  0.378993  0.387186  1
  O  O59  1  0.640041  0.121007  0.887186  1
  O  O60  1  0.648246  0.909469  0.655485  1
  O  O61  1  0.648246  0.590531  0.155485  1
  O  O62  1  0.749661  0.250977  0.125830  1
  O  O63  1  0.749661  0.249023  0.625830  1
  O  O64  1  0.852420  0.910134  0.147789  1
  O  O65  1  0.852420  0.589866  0.647789  1
  O  O66  1  0.862520  0.124957  0.389033  1
  O  O67  1  0.862520  0.375043  0.889033  1
  O  O68  1  0.892421  0.158348  0.889574  1
  O  O69  1  0.892421  0.341652  0.389574  1
  O  O70  1  0.922844  0.856178  0.466749  1
  O  O71  1  0.922844  0.643822  0.966749  1
  O  O72  1  0.940698  0.993541  0.693893  1
  O  O73  1  0.940698  0.506459  0.193893  1
  O  O74  1  0.940888  0.793560  0.752356  1
  O  O75  1  0.940888  0.706440  0.252356  1
