# generated using pymatgen
data_Na4V2P(CO4)4
_symmetry_space_group_name_H-M   'P 1'
_cell_length_a   9.95293690
_cell_length_b   9.76449468
_cell_length_c   9.95293662
_cell_angle_alpha   60.61110618
_cell_angle_beta   92.12689113
_cell_angle_gamma   60.61110663
_symmetry_Int_Tables_number   1
_chemical_formula_structural   Na4V2P(CO4)4
_chemical_formula_sum   'Na8 V4 P2 C8 O32'
_cell_volume   683.35872772
_cell_formula_units_Z   2
loop_
 _symmetry_equiv_pos_site_id
 _symmetry_equiv_pos_as_xyz
  1  'x, y, z'
loop_
 _atom_site_type_symbol
 _atom_site_label
 _atom_site_symmetry_multiplicity
 _atom_site_fract_x
 _atom_site_fract_y
 _atom_site_fract_z
 _atom_site_occupancy
  Na  Na0  1  0.083433  0.833134  0.833433  1
  Na  Na1  1  0.082398  0.250000  0.832399  1
  Na  Na2  1  0.332398  0.750000  0.582399  1
  Na  Na3  1  0.333433  0.333134  0.583433  1
  Na  Na4  1  0.666567  0.666866  0.416567  1
  Na  Na5  1  0.667601  0.250000  0.417602  1
  Na  Na6  1  0.917601  0.750000  0.167601  1
  Na  Na7  1  0.916567  0.166866  0.166567  1
  V  V8  1  0.000000  0.500000  0.000000  1
  V  V9  1  0.500000  0.000000  0.500000  1
  V  V10  1  0.500000  0.500000  0.000000  1
  V  V11  1  0.500000  0.000000  0.000000  1
  P  P12  1  0.125000  0.750000  0.375000  1
  P  P13  1  0.875000  0.250000  0.625000  1
  C  C14  1  0.361657  0.927794  0.778714  1
  C  C15  1  0.278714  0.427794  0.861657  1
  C  C16  1  0.710549  0.927794  0.793492  1
  C  C17  1  0.706508  0.572206  0.789451  1
  C  C18  1  0.293492  0.427794  0.210549  1
  C  C19  1  0.289451  0.072206  0.206508  1
  C  C20  1  0.721286  0.572206  0.138343  1
  C  C21  1  0.638343  0.072206  0.221286  1
  O  O22  1  0.358684  0.784578  0.888433  1
  O  O23  1  0.063101  0.882734  0.435027  1
  O  O24  1  0.365190  0.953916  0.638844  1
  O  O25  1  0.138844  0.453916  0.865190  1
  O  O26  1  0.680894  0.953916  0.907240  1
  O  O27  1  0.307961  0.545711  0.856320  1
  O  O28  1  0.054166  0.882734  0.182239  1
  O  O29  1  0.064973  0.617266  0.436899  1
  O  O30  1  0.402030  0.954289  0.353672  1
  O  O31  1  0.592760  0.546084  0.819106  1
  O  O32  1  0.388433  0.284578  0.858684  1
  O  O33  1  0.317761  0.617266  0.445834  1
  O  O34  1  0.856738  0.784578  0.826989  1
  O  O35  1  0.673011  0.715422  0.643262  1
  O  O36  1  0.356320  0.045711  0.807961  1
  O  O37  1  0.146328  0.545711  0.097970  1
  O  O38  1  0.853672  0.454289  0.902030  1
  O  O39  1  0.643680  0.954289  0.192039  1
  O  O40  1  0.326989  0.284578  0.356738  1
  O  O41  1  0.143262  0.215422  0.173011  1
  O  O42  1  0.682239  0.382734  0.554166  1
  O  O43  1  0.611567  0.715422  0.141316  1
  O  O44  1  0.407240  0.453916  0.180894  1
  O  O45  1  0.597970  0.045711  0.646328  1
  O  O46  1  0.935027  0.382734  0.563101  1
  O  O47  1  0.945834  0.117266  0.817761  1
  O  O48  1  0.692039  0.454289  0.143680  1
  O  O49  1  0.319106  0.046084  0.092760  1
  O  O50  1  0.861156  0.546084  0.134810  1
  O  O51  1  0.634810  0.046084  0.361156  1
  O  O52  1  0.936899  0.117266  0.564973  1
  O  O53  1  0.641316  0.215422  0.111567  1
