# generated using pymatgen
data_Na4Co2P(CO4)4
_symmetry_space_group_name_H-M   'P 1'
_cell_length_a   9.90432404
_cell_length_b   9.72624265
_cell_length_c   9.90432399
_cell_angle_alpha   60.72120163
_cell_angle_beta   92.26190358
_cell_angle_gamma   60.72120679
_symmetry_Int_Tables_number   1
_chemical_formula_structural   Na4Co2P(CO4)4
_chemical_formula_sum   'Na8 Co4 P2 C8 O32'
_cell_volume   675.46374575
_cell_formula_units_Z   2
loop_
 _symmetry_equiv_pos_site_id
 _symmetry_equiv_pos_as_xyz
  1  'x, y, z'
loop_
 _atom_site_type_symbol
 _atom_site_label
 _atom_site_symmetry_multiplicity
 _atom_site_fract_x
 _atom_site_fract_y
 _atom_site_fract_z
 _atom_site_occupancy
  Na  Na0  1  0.088390  0.823220  0.838390  1
  Na  Na1  1  0.087931  0.250000  0.837931  1
  Na  Na2  1  0.337931  0.750000  0.587931  1
  Na  Na3  1  0.338390  0.323220  0.588390  1
  Na  Na4  1  0.661610  0.676780  0.411610  1
  Na  Na5  1  0.662069  0.250000  0.412069  1
  Na  Na6  1  0.912069  0.750000  0.162069  1
  Na  Na7  1  0.911610  0.176780  0.161610  1
  Co  Co8  1  0.000000  0.500000  0.000000  1
  Co  Co9  1  0.500000  0.000000  0.500000  1
  Co  Co10  1  0.500000  0.500000  0.000000  1
  Co  Co11  1  0.500000  0.000000  0.000000  1
  P  P12  1  0.125000  0.750000  0.375000  1
  P  P13  1  0.875000  0.250000  0.625000  1
  C  C14  1  0.356356  0.931354  0.777521  1
  C  C15  1  0.277521  0.431354  0.856356  1
  C  C16  1  0.712288  0.931354  0.791124  1
  C  C17  1  0.708876  0.568646  0.787712  1
  C  C18  1  0.291124  0.431354  0.212288  1
  C  C19  1  0.287712  0.068646  0.208876  1
  C  C20  1  0.722479  0.568646  0.143644  1
  C  C21  1  0.643644  0.068646  0.222479  1
  O  O22  1  0.348822  0.792737  0.887789  1
  O  O23  1  0.063591  0.882407  0.435573  1
  O  O24  1  0.364444  0.952855  0.639037  1
  O  O25  1  0.139037  0.452855  0.864444  1
  O  O26  1  0.682701  0.952855  0.908108  1
  O  O27  1  0.302669  0.554016  0.848603  1
  O  O28  1  0.054003  0.882407  0.182020  1
  O  O29  1  0.064427  0.617593  0.436409  1
  O  O30  1  0.402619  0.945984  0.356685  1
  O  O31  1  0.591892  0.547145  0.817299  1
  O  O32  1  0.387789  0.292737  0.848822  1
  O  O33  1  0.317980  0.617593  0.445997  1
  O  O34  1  0.858442  0.792737  0.819474  1
  O  O35  1  0.680526  0.707263  0.641558  1
  O  O36  1  0.348603  0.054016  0.802669  1
  O  O37  1  0.143315  0.554016  0.097381  1
  O  O38  1  0.856685  0.445984  0.902619  1
  O  O39  1  0.651397  0.945984  0.197331  1
  O  O40  1  0.319474  0.292737  0.358442  1
  O  O41  1  0.141558  0.207263  0.180526  1
  O  O42  1  0.682020  0.382407  0.554003  1
  O  O43  1  0.612211  0.707263  0.151178  1
  O  O44  1  0.408108  0.452855  0.182701  1
  O  O45  1  0.597381  0.054016  0.643315  1
  O  O46  1  0.935573  0.382407  0.563591  1
  O  O47  1  0.945997  0.117593  0.817980  1
  O  O48  1  0.697331  0.445984  0.151397  1
  O  O49  1  0.317299  0.047145  0.091892  1
  O  O50  1  0.860963  0.547145  0.135556  1
  O  O51  1  0.635556  0.047145  0.360963  1
  O  O52  1  0.936409  0.117593  0.564427  1
  O  O53  1  0.651178  0.207263  0.112211  1
