# generated using pymatgen
data_VO2
_symmetry_space_group_name_H-M   'P 1'
_cell_length_a   2.88659675
_cell_length_b   5.04628951
_cell_length_c   5.08589097
_cell_angle_alpha   98.99088082
_cell_angle_beta   90.00014399
_cell_angle_gamma   73.38164663
_symmetry_Int_Tables_number   1
_chemical_formula_structural   VO2
_chemical_formula_sum   'V2 O4'
_cell_volume   70.03928295
_cell_formula_units_Z   2
loop_
 _symmetry_equiv_pos_site_id
 _symmetry_equiv_pos_as_xyz
  1  'x, y, z'
loop_
 _atom_site_type_symbol
 _atom_site_label
 _atom_site_symmetry_multiplicity
 _atom_site_fract_x
 _atom_site_fract_y
 _atom_site_fract_z
 _atom_site_occupancy
  V  V0  1  0.999999  0.000011  0.000003  1
  V  V1  1  0.500004  0.999992  0.499998  1
  O  O2  1  0.103479  0.793003  0.630621  1
  O  O3  1  0.603485  0.792993  0.130635  1
  O  O4  1  0.396512  0.207010  0.869364  1
  O  O5  1  0.896521  0.206996  0.369378  1
