# generated using pymatgen
data_LiFe(Si2O5)3
_symmetry_space_group_name_H-M   'P 1'
_cell_length_a   11.08085350
_cell_length_b   11.08085407
_cell_length_c   9.89677891
_cell_angle_alpha   90.00000000
_cell_angle_beta   90.00000000
_cell_angle_gamma   79.82964220
_symmetry_Int_Tables_number   1
_chemical_formula_structural   LiFe(Si2O5)3
_chemical_formula_sum   'Li4 Fe4 Si24 O60'
_cell_volume   1196.08517246
_cell_formula_units_Z   4
loop_
 _symmetry_equiv_pos_site_id
 _symmetry_equiv_pos_as_xyz
  1  'x, y, z'
loop_
 _atom_site_type_symbol
 _atom_site_label
 _atom_site_symmetry_multiplicity
 _atom_site_fract_x
 _atom_site_fract_y
 _atom_site_fract_z
 _atom_site_occupancy
  Li  Li0  1  0.247671  0.752329  0.500000  1
  Li  Li1  1  0.252329  0.747671  0.000000  1
  Li  Li2  1  0.747671  0.252329  0.000000  1
  Li  Li3  1  0.752329  0.247671  0.500000  1
  Fe  Fe4  1  0.159286  0.659286  0.750000  1
  Fe  Fe5  1  0.340714  0.840714  0.250000  1
  Fe  Fe6  1  0.659286  0.159286  0.750000  1
  Fe  Fe7  1  0.840714  0.340714  0.250000  1
  Si  Si8  1  0.022988  0.242366  0.994809  1
  Si  Si9  1  0.073952  0.294785  0.453624  1
  Si  Si10  1  0.046862  0.824416  0.302317  1
  Si  Si11  1  0.242366  0.022988  0.994809  1
  Si  Si12  1  0.205215  0.426048  0.953624  1
  Si  Si13  1  0.294785  0.073952  0.453624  1
  Si  Si14  1  0.257634  0.477012  0.494809  1
  Si  Si15  1  0.175584  0.953138  0.697683  1
  Si  Si16  1  0.324416  0.546862  0.197683  1
  Si  Si17  1  0.426048  0.205215  0.953624  1
  Si  Si18  1  0.477012  0.257634  0.494809  1
  Si  Si19  1  0.453138  0.675584  0.802317  1
  Si  Si20  1  0.546862  0.324416  0.197683  1
  Si  Si21  1  0.522988  0.742366  0.505191  1
  Si  Si22  1  0.573952  0.794785  0.046376  1
  Si  Si23  1  0.675584  0.453138  0.802317  1
  Si  Si24  1  0.824416  0.046862  0.302317  1
  Si  Si25  1  0.742366  0.522988  0.505191  1
  Si  Si26  1  0.705215  0.926048  0.546376  1
  Si  Si27  1  0.794785  0.573952  0.046376  1
  Si  Si28  1  0.757634  0.977012  0.005191  1
  Si  Si29  1  0.953138  0.175584  0.697683  1
  Si  Si30  1  0.926048  0.705215  0.546376  1
  Si  Si31  1  0.977012  0.757634  0.005191  1
  O  O32  1  0.043334  0.043334  0.689242  1
  O  O33  1  0.991733  0.342956  0.320340  1
  O  O34  1  0.112544  0.112544  0.027150  1
  O  O35  1  0.010901  0.735331  0.421865  1
  O  O36  1  0.097194  0.355654  0.006217  1
  O  O37  1  0.031641  0.759656  0.157822  1
  O  O38  1  0.174885  0.174885  0.411291  1
  O  O39  1  0.144346  0.402806  0.506217  1
  O  O40  1  0.096577  0.742418  0.906779  1
  O  O41  1  0.157044  0.508267  0.820340  1
  O  O42  1  0.162763  0.812077  0.665340  1
  O  O43  1  0.235331  0.510901  0.078135  1
  O  O44  1  0.187923  0.837237  0.334660  1
  O  O45  1  0.342956  0.991733  0.320340  1
  O  O46  1  0.259656  0.531641  0.342178  1
  O  O47  1  0.242418  0.596577  0.593221  1
  O  O48  1  0.355654  0.097194  0.006217  1
  O  O49  1  0.325115  0.325115  0.911291  1
  O  O50  1  0.257582  0.903423  0.093221  1
  O  O51  1  0.240344  0.968359  0.842178  1
  O  O52  1  0.402806  0.144346  0.506217  1
  O  O53  1  0.312077  0.662763  0.834660  1
  O  O54  1  0.264669  0.989099  0.578135  1
  O  O55  1  0.387456  0.387456  0.527150  1
  O  O56  1  0.337237  0.687923  0.165340  1
  O  O57  1  0.508267  0.157044  0.820340  1
  O  O58  1  0.456666  0.456666  0.189242  1
  O  O59  1  0.403423  0.757582  0.406779  1
  O  O60  1  0.510901  0.235331  0.078135  1
  O  O61  1  0.531641  0.259656  0.342178  1
  O  O62  1  0.468359  0.740344  0.657822  1
  O  O63  1  0.489099  0.764669  0.921865  1
  O  O64  1  0.596577  0.242418  0.593221  1
  O  O65  1  0.543334  0.543334  0.810758  1
  O  O66  1  0.491733  0.842956  0.179660  1
  O  O67  1  0.662763  0.312077  0.834660  1
  O  O68  1  0.612544  0.612544  0.472850  1
  O  O69  1  0.735331  0.010901  0.421865  1
  O  O70  1  0.687923  0.337237  0.165340  1
  O  O71  1  0.597194  0.855654  0.493783  1
  O  O72  1  0.759656  0.031641  0.157822  1
  O  O73  1  0.742418  0.096577  0.906779  1
  O  O74  1  0.674885  0.674885  0.088709  1
  O  O75  1  0.644346  0.902806  0.993783  1
  O  O76  1  0.757582  0.403423  0.406779  1
  O  O77  1  0.740344  0.468359  0.657822  1
  O  O78  1  0.657044  0.008267  0.679660  1
  O  O79  1  0.812077  0.162763  0.665340  1
  O  O80  1  0.764669  0.489099  0.921865  1
  O  O81  1  0.837237  0.187923  0.334660  1
  O  O82  1  0.842956  0.491733  0.179660  1
  O  O83  1  0.903423  0.257582  0.093221  1
  O  O84  1  0.855654  0.597194  0.493783  1
  O  O85  1  0.825115  0.825115  0.588709  1
  O  O86  1  0.968359  0.240344  0.842178  1
  O  O87  1  0.902806  0.644346  0.993783  1
  O  O88  1  0.989099  0.264669  0.578135  1
  O  O89  1  0.887456  0.887456  0.972850  1
  O  O90  1  0.008267  0.657044  0.679660  1
  O  O91  1  0.956666  0.956666  0.310758  1
