# generated using pymatgen
data_Ti3Nb(CuO4)3
_symmetry_space_group_name_H-M   'P 1'
_cell_length_a   6.47673024
_cell_length_b   6.47673024
_cell_length_c   6.47673024
_cell_angle_alpha   109.65770596
_cell_angle_beta   109.65770596
_cell_angle_gamma   109.65770596
_symmetry_Int_Tables_number   1
_chemical_formula_structural   Ti3Nb(CuO4)3
_chemical_formula_sum   'Ti3 Nb1 Cu3 O12'
_cell_volume   207.68749028
_cell_formula_units_Z   1
loop_
 _symmetry_equiv_pos_site_id
 _symmetry_equiv_pos_as_xyz
  1  'x, y, z'
loop_
 _atom_site_type_symbol
 _atom_site_label
 _atom_site_symmetry_multiplicity
 _atom_site_fract_x
 _atom_site_fract_y
 _atom_site_fract_z
 _atom_site_occupancy
  Ti  Ti0  1  0.500000  0.000000  0.000000  1
  Ti  Ti1  1  0.000000  0.500000  0.000000  1
  Ti  Ti2  1  0.000000  0.000000  0.500000  1
  Nb  Nb3  1  0.500000  0.500000  0.500000  1
  Cu  Cu4  1  0.500000  0.500000  0.000000  1
  Cu  Cu5  1  0.500000  0.000000  0.500000  1
  Cu  Cu6  1  0.000000  0.500000  0.500000  1
  O  O7  1  0.819993  0.313332  0.133495  1
  O  O8  1  0.492032  0.175764  0.311902  1
  O  O9  1  0.866505  0.180007  0.686668  1
  O  O10  1  0.686668  0.866505  0.180007  1
  O  O11  1  0.311902  0.492032  0.175764  1
  O  O12  1  0.824236  0.688098  0.507968  1
  O  O13  1  0.175764  0.311902  0.492032  1
  O  O14  1  0.313332  0.133495  0.819993  1
  O  O15  1  0.688098  0.507968  0.824236  1
  O  O16  1  0.133495  0.819993  0.313332  1
  O  O17  1  0.507968  0.824236  0.688098  1
  O  O18  1  0.180007  0.686668  0.866505  1
