# generated using pymatgen
data_Na2MnSiCO7
_symmetry_space_group_name_H-M   'P 1'
_cell_length_a   9.02638415
_cell_length_b   6.46459500
_cell_length_c   5.19407884
_cell_angle_alpha   90.00000000
_cell_angle_beta   88.56930160
_cell_angle_gamma   90.00000000
_symmetry_Int_Tables_number   1
_chemical_formula_structural   Na2MnSiCO7
_chemical_formula_sum   'Na4 Mn2 Si2 C2 O14'
_cell_volume   302.98997706
_cell_formula_units_Z   2
loop_
 _symmetry_equiv_pos_site_id
 _symmetry_equiv_pos_as_xyz
  1  'x, y, z'
loop_
 _atom_site_type_symbol
 _atom_site_label
 _atom_site_symmetry_multiplicity
 _atom_site_fract_x
 _atom_site_fract_y
 _atom_site_fract_z
 _atom_site_occupancy
  Na  Na0  1  0.240076  0.011281  0.237758  1
  Na  Na1  1  0.240076  0.488719  0.237758  1
  Na  Na2  1  0.759924  0.511281  0.762242  1
  Na  Na3  1  0.759924  0.988719  0.762242  1
  Mn  Mn4  1  0.348179  0.750000  0.789058  1
  Mn  Mn5  1  0.651821  0.250000  0.210942  1
  Si  Si6  1  0.429085  0.250000  0.711540  1
  Si  Si7  1  0.570915  0.750000  0.288460  1
  C  C8  1  0.077730  0.750000  0.726915  1
  C  C9  1  0.922270  0.250000  0.273085  1
  O  O10  1  0.059018  0.250000  0.301961  1
  O  O11  1  0.140990  0.750000  0.951523  1
  O  O12  1  0.176612  0.750000  0.535323  1
  O  O13  1  0.328058  0.046830  0.786361  1
  O  O14  1  0.328058  0.453170  0.786361  1
  O  O15  1  0.414052  0.750000  0.135521  1
  O  O16  1  0.466775  0.250000  0.396694  1
  O  O17  1  0.533225  0.750000  0.603306  1
  O  O18  1  0.585948  0.250000  0.864479  1
  O  O19  1  0.671942  0.546830  0.213639  1
  O  O20  1  0.671942  0.953170  0.213639  1
  O  O21  1  0.823388  0.250000  0.464677  1
  O  O22  1  0.859010  0.250000  0.048477  1
  O  O23  1  0.940982  0.750000  0.698039  1
