# generated using pymatgen
data_NaVPCO7
_symmetry_space_group_name_H-M   'P 1'
_cell_length_a   8.48720452
_cell_length_b   5.46393084
_cell_length_c   6.41867502
_cell_angle_alpha   90.00000000
_cell_angle_beta   90.00000000
_cell_angle_gamma   86.94921977
_symmetry_Int_Tables_number   1
_chemical_formula_structural   NaVPCO7
_chemical_formula_sum   'Na2 V2 P2 C2 O14'
_cell_volume   297.23456561
_cell_formula_units_Z   2
loop_
 _symmetry_equiv_pos_site_id
 _symmetry_equiv_pos_as_xyz
  1  'x, y, z'
loop_
 _atom_site_type_symbol
 _atom_site_label
 _atom_site_symmetry_multiplicity
 _atom_site_fract_x
 _atom_site_fract_y
 _atom_site_fract_z
 _atom_site_occupancy
  Na  Na0  1  0.081516  0.772395  0.250000  1
  Na  Na1  1  0.918484  0.227605  0.750000  1
  V  V2  1  0.336684  0.779867  0.750000  1
  V  V3  1  0.663316  0.220133  0.250000  1
  P  P4  1  0.436377  0.740623  0.250000  1
  P  P5  1  0.563623  0.259377  0.750000  1
  C  C6  1  0.055421  0.696562  0.750000  1
  C  C7  1  0.944579  0.303438  0.250000  1
  O  O8  1  0.086661  0.347151  0.250000  1
  O  O9  1  0.111712  0.920238  0.750000  1
  O  O10  1  0.174362  0.529128  0.750000  1
  O  O11  1  0.328861  0.784682  0.059029  1
  O  O12  1  0.328861  0.784682  0.440971  1
  O  O13  1  0.425192  0.084897  0.750000  1
  O  O14  1  0.507282  0.471262  0.250000  1
  O  O15  1  0.492718  0.528738  0.750000  1
  O  O16  1  0.574808  0.915103  0.250000  1
  O  O17  1  0.671139  0.215318  0.559029  1
  O  O18  1  0.671139  0.215318  0.940971  1
  O  O19  1  0.825638  0.470872  0.250000  1
  O  O20  1  0.888288  0.079762  0.250000  1
  O  O21  1  0.913339  0.652849  0.750000  1
