# generated using pymatgen
data_Na5Co2As(CO4)4
_symmetry_space_group_name_H-M   'P 1'
_cell_length_a   10.00016761
_cell_length_b   9.88837984
_cell_length_c   10.00298867
_cell_angle_alpha   119.64051105
_cell_angle_beta   59.92017638
_cell_angle_gamma   119.61209306
_symmetry_Int_Tables_number   1
_chemical_formula_structural   Na5Co2As(CO4)4
_chemical_formula_sum   'Na10 Co4 As2 C8 O32'
_cell_volume   702.92936321
_cell_formula_units_Z   2
loop_
 _symmetry_equiv_pos_site_id
 _symmetry_equiv_pos_as_xyz
  1  'x, y, z'
loop_
 _atom_site_type_symbol
 _atom_site_label
 _atom_site_symmetry_multiplicity
 _atom_site_fract_x
 _atom_site_fract_y
 _atom_site_fract_z
 _atom_site_occupancy
  Na  Na0  1  0.913121  0.163121  0.913121  1
  Na  Na1  1  0.906381  0.168901  0.347028  1
  Na  Na2  1  0.906627  0.585366  0.346874  1
  Na  Na3  1  0.652972  0.415492  0.093619  1
  Na  Na4  1  0.346874  0.168136  0.906627  1
  Na  Na5  1  0.653126  0.831864  0.093373  1
  Na  Na6  1  0.347028  0.584508  0.906381  1
  Na  Na7  1  0.093373  0.414634  0.653126  1
  Na  Na8  1  0.093619  0.831099  0.652972  1
  Na  Na9  1  0.086879  0.836879  0.086879  1
  Co  Co10  1  0.500000  0.000000  0.000000  1
  Co  Co11  1  0.500000  0.000000  0.500000  1
  Co  Co12  1  0.500000  0.500000  0.500000  1
  Co  Co13  1  0.000000  0.000000  0.500000  1
  As  As14  1  0.872140  0.622140  0.872140  1
  As  As15  1  0.127860  0.377860  0.127860  1
  C  C16  1  0.713245  0.139595  0.713284  1
  C  C17  1  0.642089  0.213873  0.283293  1
  C  C18  1  0.283293  0.211510  0.642089  1
  C  C19  1  0.286716  0.213066  0.286755  1
  C  C20  1  0.713284  0.786934  0.713245  1
  C  C21  1  0.716707  0.788490  0.357911  1
  C  C22  1  0.357911  0.786127  0.716707  1
  C  C23  1  0.286755  0.860405  0.286716  1
  O  O24  1  0.858782  0.148106  0.687124  1
  O  O25  1  0.646383  0.102294  0.312344  1
  O  O26  1  0.682756  0.132435  0.598856  1
  O  O27  1  0.646584  0.183132  0.137913  1
  O  O28  1  0.602552  0.145786  0.858695  1
  O  O29  1  0.942585  0.551624  0.944314  1
  O  O30  1  0.954343  0.557232  0.662377  1
  O  O31  1  0.643531  0.357978  0.391363  1
  O  O32  1  0.312876  0.102201  0.141219  1
  O  O33  1  0.391363  0.176917  0.643531  1
  O  O34  1  0.944314  0.835274  0.942585  1
  O  O35  1  0.662377  0.559487  0.954343  1
  O  O36  1  0.858695  0.815461  0.602552  1
  O  O37  1  0.687656  0.643566  0.353617  1
  O  O38  1  0.137913  0.101364  0.646584  1
  O  O39  1  0.401144  0.350822  0.317244  1
  O  O40  1  0.862087  0.898636  0.353416  1
  O  O41  1  0.598856  0.649178  0.682756  1
  O  O42  1  0.312344  0.356434  0.646383  1
  O  O43  1  0.141305  0.184539  0.397448  1
  O  O44  1  0.337623  0.440513  0.045657  1
  O  O45  1  0.055686  0.164726  0.057415  1
  O  O46  1  0.687124  0.897799  0.858782  1
  O  O47  1  0.608637  0.823083  0.356469  1
  O  O48  1  0.356469  0.642022  0.608637  1
  O  O49  1  0.057415  0.448376  0.055686  1
  O  O50  1  0.045657  0.442768  0.337623  1
  O  O51  1  0.397448  0.854214  0.141305  1
  O  O52  1  0.353416  0.816868  0.862087  1
  O  O53  1  0.317244  0.867565  0.401144  1
  O  O54  1  0.353617  0.897706  0.687656  1
  O  O55  1  0.141219  0.851894  0.312876  1
