# generated using pymatgen
data_Na4Mn2C4SO16
_symmetry_space_group_name_H-M   'P 1'
_cell_length_a   9.77449172
_cell_length_b   9.84379887
_cell_length_c   9.77449121
_cell_angle_alpha   61.63185348
_cell_angle_beta   92.46400943
_cell_angle_gamma   61.63185380
_symmetry_Int_Tables_number   1
_chemical_formula_structural   Na4Mn2C4SO16
_chemical_formula_sum   'Na8 Mn4 C8 S2 O32'
_cell_volume   682.89311596
_cell_formula_units_Z   2
loop_
 _symmetry_equiv_pos_site_id
 _symmetry_equiv_pos_as_xyz
  1  'x, y, z'
loop_
 _atom_site_type_symbol
 _atom_site_label
 _atom_site_symmetry_multiplicity
 _atom_site_fract_x
 _atom_site_fract_y
 _atom_site_fract_z
 _atom_site_occupancy
  Na  Na0  1  0.829385  0.841231  0.079385  1
  Na  Na1  1  0.834635  0.250000  0.084635  1
  Na  Na2  1  0.584635  0.750000  0.334635  1
  Na  Na3  1  0.579385  0.341231  0.329385  1
  Na  Na4  1  0.420615  0.658769  0.670615  1
  Na  Na5  1  0.415365  0.250000  0.665365  1
  Na  Na6  1  0.165365  0.750000  0.915365  1
  Na  Na7  1  0.170615  0.158769  0.920615  1
  Mn  Mn8  1  0.500000  0.000000  0.500000  1
  Mn  Mn9  1  0.000000  0.500000  0.000000  1
  Mn  Mn10  1  0.000000  0.500000  0.500000  1
  Mn  Mn11  1  0.000000  0.000000  0.500000  1
  C  C12  1  0.772887  0.938877  0.356824  1
  C  C13  1  0.788237  0.938877  0.704300  1
  C  C14  1  0.856824  0.438877  0.272887  1
  C  C15  1  0.795700  0.561123  0.711763  1
  C  C16  1  0.204300  0.438877  0.288237  1
  C  C17  1  0.143176  0.561123  0.727113  1
  C  C18  1  0.211763  0.061123  0.295700  1
  C  C19  1  0.227113  0.061123  0.643176  1
  S  S20  1  0.375000  0.750000  0.125000  1
  S  S21  1  0.625000  0.250000  0.875000  1
  O  O22  1  0.888642  0.971670  0.353128  1
  O  O23  1  0.897950  0.808071  0.848841  1
  O  O24  1  0.793979  0.808071  0.343088  1
  O  O25  1  0.867372  0.547443  0.135901  1
  O  O26  1  0.914815  0.452557  0.683344  1
  O  O27  1  0.639688  0.971670  0.675202  1
  O  O28  1  0.853128  0.471670  0.388642  1
  O  O29  1  0.824798  0.528330  0.860312  1
  O  O30  1  0.843088  0.308071  0.293979  1
  O  O31  1  0.651159  0.691929  0.602050  1
  O  O32  1  0.437926  0.872594  0.068275  1
  O  O33  1  0.810520  0.127406  0.940869  1
  O  O34  1  0.816656  0.047443  0.585185  1
  O  O35  1  0.364099  0.952557  0.632628  1
  O  O36  1  0.440869  0.627406  0.310520  1
  O  O37  1  0.431725  0.627406  0.062074  1
  O  O38  1  0.568275  0.372594  0.937926  1
  O  O39  1  0.559131  0.372594  0.689480  1
  O  O40  1  0.635901  0.047443  0.367372  1
  O  O41  1  0.183344  0.952557  0.414815  1
  O  O42  1  0.189480  0.872594  0.059131  1
  O  O43  1  0.562074  0.127406  0.931725  1
  O  O44  1  0.348841  0.308071  0.397950  1
  O  O45  1  0.156912  0.691929  0.706021  1
  O  O46  1  0.175202  0.471670  0.139688  1
  O  O47  1  0.146872  0.528330  0.611358  1
  O  O48  1  0.360312  0.028330  0.324798  1
  O  O49  1  0.085185  0.547443  0.316656  1
  O  O50  1  0.132628  0.452557  0.864099  1
  O  O51  1  0.206021  0.191929  0.656912  1
  O  O52  1  0.102050  0.191929  0.151159  1
  O  O53  1  0.111358  0.028330  0.646872  1
