# generated using pymatgen
data_Na2CrSiCO7
_symmetry_space_group_name_H-M   'P 1'
_cell_length_a   9.02231958
_cell_length_b   6.47517744
_cell_length_c   5.25049034
_cell_angle_alpha   90.00000000
_cell_angle_beta   88.86644186
_cell_angle_gamma   90.00000000
_symmetry_Int_Tables_number   1
_chemical_formula_structural   Na2CrSiCO7
_chemical_formula_sum   'Na4 Cr2 Si2 C2 O14'
_cell_volume   306.67949756
_cell_formula_units_Z   2
loop_
 _symmetry_equiv_pos_site_id
 _symmetry_equiv_pos_as_xyz
  1  'x, y, z'
loop_
 _atom_site_type_symbol
 _atom_site_label
 _atom_site_symmetry_multiplicity
 _atom_site_fract_x
 _atom_site_fract_y
 _atom_site_fract_z
 _atom_site_occupancy
  Na  Na0  1  0.235627  0.006836  0.237407  1
  Na  Na1  1  0.235627  0.493164  0.237407  1
  Na  Na2  1  0.764373  0.506836  0.762593  1
  Na  Na3  1  0.764373  0.993164  0.762593  1
  Cr  Cr4  1  0.348230  0.750000  0.794106  1
  Cr  Cr5  1  0.651770  0.250000  0.205894  1
  Si  Si6  1  0.428481  0.250000  0.706226  1
  Si  Si7  1  0.571519  0.750000  0.293774  1
  C  C8  1  0.076849  0.750000  0.727914  1
  C  C9  1  0.923151  0.250000  0.272086  1
  O  O10  1  0.060812  0.250000  0.298259  1
  O  O11  1  0.141286  0.750000  0.951048  1
  O  O12  1  0.174614  0.750000  0.537630  1
  O  O13  1  0.333196  0.041673  0.780324  1
  O  O14  1  0.333196  0.458327  0.780324  1
  O  O15  1  0.418490  0.750000  0.127433  1
  O  O16  1  0.466028  0.250000  0.397445  1
  O  O17  1  0.533972  0.750000  0.602555  1
  O  O18  1  0.581510  0.250000  0.872567  1
  O  O19  1  0.666804  0.541673  0.219676  1
  O  O20  1  0.666804  0.958327  0.219676  1
  O  O21  1  0.825386  0.250000  0.462370  1
  O  O22  1  0.858714  0.250000  0.048952  1
  O  O23  1  0.939188  0.750000  0.701741  1
