# generated using pymatgen
data_V12O29
_symmetry_space_group_name_H-M   'P 1'
_cell_length_a   14.34557953
_cell_length_b   14.34557953
_cell_length_c   10.28727419
_cell_angle_alpha   78.01433932
_cell_angle_beta   101.98566068
_cell_angle_gamma   165.47642460
_symmetry_Int_Tables_number   1
_chemical_formula_structural   V12O29
_chemical_formula_sum   'V12 O29'
_cell_volume   519.15263103
_cell_formula_units_Z   1
loop_
 _symmetry_equiv_pos_site_id
 _symmetry_equiv_pos_as_xyz
  1  'x, y, z'
loop_
 _atom_site_type_symbol
 _atom_site_label
 _atom_site_symmetry_multiplicity
 _atom_site_fract_x
 _atom_site_fract_y
 _atom_site_fract_z
 _atom_site_occupancy
  V  V0  1  0.061632  0.938368  0.085754  1
  V  V1  1  0.148989  0.851011  0.343558  1
  V  V2  1  0.177708  0.822292  0.028278  1
  V  V3  1  0.304273  0.695727  0.212301  1
  V  V4  1  0.392728  0.607272  0.467423  1
  V  V5  1  0.414904  0.585096  0.144544  1
  V  V6  1  0.585096  0.414904  0.855456  1
  V  V7  1  0.607272  0.392728  0.532577  1
  V  V8  1  0.695727  0.304273  0.787699  1
  V  V9  1  0.822292  0.177708  0.971722  1
  V  V10  1  0.851011  0.148989  0.656442  1
  V  V11  1  0.938368  0.061632  0.914246  1
  O  O12  1  0.099775  0.900225  0.900611  1
  O  O13  1  0.058612  0.941388  0.240132  1
  O  O14  1  0.124626  0.875374  0.514919  1
  O  O15  1  0.140578  0.859422  0.157989  1
  O  O16  1  0.193557  0.806443  0.841350  1
  O  O17  1  0.205818  0.794182  0.387746  1
  O  O18  1  0.233663  0.766337  0.118678  1
  O  O19  1  0.297574  0.702426  0.362471  1
  O  O20  1  0.368954  0.631046  0.637569  1
  O  O21  1  0.332120  0.667880  0.016297  1
  O  O22  1  0.376658  0.623342  0.278637  1
  O  O23  1  0.428589  0.571411  0.960121  1
  O  O24  1  0.449678  0.550322  0.502675  1
  O  O25  1  0.467547  0.532453  0.234537  1
  O  O26  1  0.532453  0.467547  0.765463  1
  O  O27  1  0.000000  0.000000  0.000000  1
  O  O28  1  0.550322  0.449678  0.497325  1
  O  O29  1  0.571411  0.428589  0.039879  1
  O  O30  1  0.623342  0.376658  0.721363  1
  O  O31  1  0.667880  0.332120  0.983703  1
  O  O32  1  0.631046  0.368954  0.362431  1
  O  O33  1  0.702426  0.297574  0.637529  1
  O  O34  1  0.766337  0.233663  0.881322  1
  O  O35  1  0.794182  0.205818  0.612254  1
  O  O36  1  0.806443  0.193557  0.158650  1
  O  O37  1  0.859422  0.140578  0.842011  1
  O  O38  1  0.875374  0.124626  0.485081  1
  O  O39  1  0.941388  0.058612  0.759868  1
  O  O40  1  0.900225  0.099775  0.099389  1
