# generated using pymatgen
data_Na4Ni2P(CO4)4
_symmetry_space_group_name_H-M   'P 1'
_cell_length_a   9.82088584
_cell_length_b   9.64552976
_cell_length_c   9.82088545
_cell_angle_alpha   60.67352517
_cell_angle_beta   92.17317808
_cell_angle_gamma   60.67352600
_symmetry_Int_Tables_number   1
_chemical_formula_structural   Na4Ni2P(CO4)4
_chemical_formula_sum   'Na8 Ni4 P2 C8 O32'
_cell_volume   658.21570063
_cell_formula_units_Z   2
loop_
 _symmetry_equiv_pos_site_id
 _symmetry_equiv_pos_as_xyz
  1  'x, y, z'
loop_
 _atom_site_type_symbol
 _atom_site_label
 _atom_site_symmetry_multiplicity
 _atom_site_fract_x
 _atom_site_fract_y
 _atom_site_fract_z
 _atom_site_occupancy
  Na  Na0  1  0.086301  0.827399  0.836301  1
  Na  Na1  1  0.086203  0.250000  0.836203  1
  Na  Na2  1  0.336203  0.750000  0.586203  1
  Na  Na3  1  0.336301  0.327399  0.586301  1
  Na  Na4  1  0.663699  0.672601  0.413699  1
  Na  Na5  1  0.663797  0.250000  0.413797  1
  Na  Na6  1  0.913797  0.750000  0.163797  1
  Na  Na7  1  0.913699  0.172601  0.163699  1
  Ni  Ni8  1  0.000000  0.500000  0.000000  1
  Ni  Ni9  1  0.500000  0.000000  0.500000  1
  Ni  Ni10  1  0.500000  0.500000  0.000000  1
  Ni  Ni11  1  0.500000  0.000000  0.000000  1
  P  P12  1  0.125000  0.750000  0.375000  1
  P  P13  1  0.875000  0.250000  0.625000  1
  C  C14  1  0.354740  0.932859  0.777339  1
  C  C15  1  0.277339  0.432859  0.854740  1
  C  C16  1  0.712401  0.932859  0.789802  1
  C  C17  1  0.710198  0.567141  0.787599  1
  C  C18  1  0.289802  0.432859  0.212401  1
  C  C19  1  0.287599  0.067141  0.210198  1
  C  C20  1  0.722661  0.567141  0.145260  1
  C  C21  1  0.645260  0.067141  0.222661  1
  O  O22  1  0.347894  0.794543  0.892050  1
  O  O23  1  0.064033  0.882247  0.435750  1
  O  O24  1  0.363067  0.947905  0.640305  1
  O  O25  1  0.140305  0.447905  0.863067  1
  O  O26  1  0.689027  0.947905  0.911789  1
  O  O27  1  0.298712  0.558303  0.846829  1
  O  O28  1  0.053719  0.882247  0.182003  1
  O  O29  1  0.064250  0.617753  0.435967  1
  O  O30  1  0.405132  0.941697  0.357015  1
  O  O31  1  0.588211  0.552095  0.810973  1
  O  O32  1  0.392050  0.294543  0.847894  1
  O  O33  1  0.317997  0.617753  0.446281  1
  O  O34  1  0.857563  0.794543  0.813407  1
  O  O35  1  0.686593  0.705457  0.642437  1
  O  O36  1  0.346829  0.058303  0.798712  1
  O  O37  1  0.142985  0.558303  0.094868  1
  O  O38  1  0.857015  0.441697  0.905132  1
  O  O39  1  0.653171  0.941697  0.201288  1
  O  O40  1  0.313407  0.294543  0.357563  1
  O  O41  1  0.142437  0.205457  0.186593  1
  O  O42  1  0.682003  0.382247  0.553719  1
  O  O43  1  0.607950  0.705457  0.152106  1
  O  O44  1  0.411789  0.447905  0.189027  1
  O  O45  1  0.594868  0.058303  0.642985  1
  O  O46  1  0.935750  0.382247  0.564033  1
  O  O47  1  0.946281  0.117753  0.817997  1
  O  O48  1  0.701288  0.441697  0.153171  1
  O  O49  1  0.310973  0.052095  0.088211  1
  O  O50  1  0.859695  0.552095  0.136933  1
  O  O51  1  0.636933  0.052095  0.359695  1
  O  O52  1  0.935967  0.117753  0.564250  1
  O  O53  1  0.652106  0.205457  0.107950  1
