# generated using pymatgen
data_Ti3Fe(PO4)6
_symmetry_space_group_name_H-M   'P 1'
_cell_length_a   8.78285025
_cell_length_b   8.78285099
_cell_length_c   8.78285101
_cell_angle_alpha   58.43591169
_cell_angle_beta   58.43591309
_cell_angle_gamma   58.43590993
_symmetry_Int_Tables_number   1
_chemical_formula_structural   Ti3Fe(PO4)6
_chemical_formula_sum   'Ti3 Fe1 P6 O24'
_cell_volume   461.91484853
_cell_formula_units_Z   1
loop_
 _symmetry_equiv_pos_site_id
 _symmetry_equiv_pos_as_xyz
  1  'x, y, z'
loop_
 _atom_site_type_symbol
 _atom_site_label
 _atom_site_symmetry_multiplicity
 _atom_site_fract_x
 _atom_site_fract_y
 _atom_site_fract_z
 _atom_site_occupancy
  Ti  Ti0  1  0.140032  0.140032  0.140032  1
  Ti  Ti1  1  0.359328  0.359328  0.359328  1
  Ti  Ti2  1  0.639313  0.639313  0.639313  1
  Fe  Fe3  1  0.855569  0.855569  0.855569  1
  P  P4  1  0.030006  0.748653  0.472389  1
  P  P5  1  0.472389  0.030006  0.748653  1
  P  P6  1  0.748653  0.472389  0.030006  1
  P  P7  1  0.241212  0.538416  0.967185  1
  P  P8  1  0.538416  0.967185  0.241212  1
  P  P9  1  0.967185  0.241212  0.538416  1
  O  O10  1  0.140003  0.269727  0.509055  1
  O  O11  1  0.269727  0.509055  0.140003  1
  O  O12  1  0.056900  0.924865  0.294896  1
  O  O13  1  0.509055  0.140003  0.269727  1
  O  O14  1  0.209937  0.574371  0.445252  1
  O  O15  1  0.009198  0.768796  0.650173  1
  O  O16  1  0.294896  0.056900  0.924865  1
  O  O17  1  0.445252  0.209937  0.574371  1
  O  O18  1  0.574371  0.445252  0.209937  1
  O  O19  1  0.213322  0.366480  0.995776  1
  O  O20  1  0.063365  0.722399  0.943779  1
  O  O21  1  0.366480  0.995776  0.213322  1
  O  O22  1  0.650173  0.009198  0.768796  1
  O  O23  1  0.924865  0.294896  0.056900  1
  O  O24  1  0.768796  0.650173  0.009198  1
  O  O25  1  0.413289  0.570968  0.784976  1
  O  O26  1  0.570968  0.784976  0.413289  1
  O  O27  1  0.722399  0.943779  0.063365  1
  O  O28  1  0.995776  0.213322  0.366480  1
  O  O29  1  0.784976  0.413289  0.570968  1
  O  O30  1  0.500727  0.857989  0.721652  1
  O  O31  1  0.943779  0.063365  0.722399  1
  O  O32  1  0.721652  0.500727  0.857989  1
  O  O33  1  0.857989  0.721652  0.500727  1
