# generated using pymatgen
data_Na4Bi2As(CO4)4
_symmetry_space_group_name_H-M   'P 1'
_cell_length_a   10.60145094
_cell_length_b   10.31777598
_cell_length_c   10.60145037
_cell_angle_alpha   61.46406685
_cell_angle_beta   94.02235400
_cell_angle_gamma   61.46407095
_symmetry_Int_Tables_number   1
_chemical_formula_structural   Na4Bi2As(CO4)4
_chemical_formula_sum   'Na8 Bi4 As2 C8 O32'
_cell_volume   825.41259451
_cell_formula_units_Z   2
loop_
 _symmetry_equiv_pos_site_id
 _symmetry_equiv_pos_as_xyz
  1  'x, y, z'
loop_
 _atom_site_type_symbol
 _atom_site_label
 _atom_site_symmetry_multiplicity
 _atom_site_fract_x
 _atom_site_fract_y
 _atom_site_fract_z
 _atom_site_occupancy
  Na  Na0  1  0.079021  0.841958  0.829021  1
  Na  Na1  1  0.080539  0.250000  0.830539  1
  Na  Na2  1  0.330539  0.750000  0.580539  1
  Na  Na3  1  0.329021  0.341958  0.579021  1
  Na  Na4  1  0.670979  0.658042  0.420979  1
  Na  Na5  1  0.669461  0.250000  0.419461  1
  Na  Na6  1  0.919461  0.750000  0.169461  1
  Na  Na7  1  0.920979  0.158042  0.170979  1
  Bi  Bi8  1  0.000000  0.500000  0.000000  1
  Bi  Bi9  1  0.500000  0.000000  0.500000  1
  Bi  Bi10  1  0.500000  0.500000  0.000000  1
  Bi  Bi11  1  0.500000  0.000000  0.000000  1
  As  As12  1  0.125000  0.750000  0.375000  1
  As  As13  1  0.875000  0.250000  0.625000  1
  C  C14  1  0.341974  0.940715  0.770926  1
  C  C15  1  0.270926  0.440715  0.841974  1
  C  C16  1  0.717312  0.940715  0.788360  1
  C  C17  1  0.711640  0.559285  0.782688  1
  C  C18  1  0.288360  0.440715  0.217312  1
  C  C19  1  0.282688  0.059285  0.211640  1
  C  C20  1  0.729074  0.559285  0.158026  1
  C  C21  1  0.658026  0.059285  0.229074  1
  O  O22  1  0.333947  0.817793  0.881348  1
  O  O23  1  0.066897  0.892016  0.433589  1
  O  O24  1  0.353319  0.942295  0.649314  1
  O  O25  1  0.149314  0.442295  0.853319  1
  O  O26  1  0.704386  0.942295  0.908392  1
  O  O27  1  0.281914  0.564376  0.836307  1
  O  O28  1  0.041087  0.892016  0.174395  1
  O  O29  1  0.066411  0.607984  0.433103  1
  O  O30  1  0.400683  0.935624  0.346290  1
  O  O31  1  0.591608  0.557705  0.795614  1
  O  O32  1  0.381348  0.317793  0.833947  1
  O  O33  1  0.325605  0.607984  0.458913  1
  O  O34  1  0.848260  0.817793  0.800859  1
  O  O35  1  0.699141  0.682207  0.651740  1
  O  O36  1  0.336307  0.064376  0.781914  1
  O  O37  1  0.153710  0.564376  0.099317  1
  O  O38  1  0.846290  0.435624  0.900683  1
  O  O39  1  0.663693  0.935624  0.218086  1
  O  O40  1  0.300859  0.317793  0.348260  1
  O  O41  1  0.151740  0.182207  0.199141  1
  O  O42  1  0.674395  0.392016  0.541087  1
  O  O43  1  0.618652  0.682207  0.166053  1
  O  O44  1  0.408392  0.442295  0.204386  1
  O  O45  1  0.599317  0.064376  0.653710  1
  O  O46  1  0.933589  0.392016  0.566897  1
  O  O47  1  0.958913  0.107984  0.825605  1
  O  O48  1  0.718086  0.435624  0.163693  1
  O  O49  1  0.295614  0.057705  0.091608  1
  O  O50  1  0.850686  0.557705  0.146681  1
  O  O51  1  0.646681  0.057705  0.350686  1
  O  O52  1  0.933103  0.107984  0.566411  1
  O  O53  1  0.666053  0.182207  0.118652  1
