# generated using pymatgen
data_Na4Fe2As(CO4)4
_symmetry_space_group_name_H-M   'P 1'
_cell_length_a   10.01126579
_cell_length_b   9.84235391
_cell_length_c   10.01126579
_cell_angle_alpha   60.79127403
_cell_angle_beta   92.32007208
_cell_angle_gamma   60.79127747
_symmetry_Int_Tables_number   1
_chemical_formula_structural   Na4Fe2As(CO4)4
_chemical_formula_sum   'Na8 Fe4 As2 C8 O32'
_cell_volume   699.48394041
_cell_formula_units_Z   2
loop_
 _symmetry_equiv_pos_site_id
 _symmetry_equiv_pos_as_xyz
  1  'x, y, z'
loop_
 _atom_site_type_symbol
 _atom_site_label
 _atom_site_symmetry_multiplicity
 _atom_site_fract_x
 _atom_site_fract_y
 _atom_site_fract_z
 _atom_site_occupancy
  Na  Na0  1  0.089165  0.821670  0.839165  1
  Na  Na1  1  0.089179  0.250000  0.839179  1
  Na  Na2  1  0.339179  0.750000  0.589179  1
  Na  Na3  1  0.339165  0.321670  0.589165  1
  Na  Na4  1  0.660835  0.678330  0.410835  1
  Na  Na5  1  0.660821  0.250000  0.410821  1
  Na  Na6  1  0.910821  0.750000  0.160821  1
  Na  Na7  1  0.910835  0.178330  0.160835  1
  Fe  Fe8  1  0.000000  0.500000  0.000000  1
  Fe  Fe9  1  0.500000  0.000000  0.500000  1
  Fe  Fe10  1  0.500000  0.500000  0.000000  1
  Fe  Fe11  1  0.500000  0.000000  0.000000  1
  As  As12  1  0.125000  0.750000  0.375000  1
  As  As13  1  0.875000  0.250000  0.625000  1
  C  C14  1  0.360357  0.927896  0.779753  1
  C  C15  1  0.279753  0.427896  0.860357  1
  C  C16  1  0.711746  0.927896  0.792351  1
  C  C17  1  0.707649  0.572104  0.788254  1
  C  C18  1  0.292351  0.427896  0.211746  1
  C  C19  1  0.288254  0.072104  0.207649  1
  C  C20  1  0.720247  0.572104  0.139643  1
  C  C21  1  0.639643  0.072104  0.220247  1
  O  O22  1  0.355226  0.788813  0.889050  1
  O  O23  1  0.060886  0.898488  0.438337  1
  O  O24  1  0.365324  0.952970  0.641161  1
  O  O25  1  0.141161  0.452970  0.865324  1
  O  O26  1  0.681706  0.952970  0.905869  1
  O  O27  1  0.307812  0.546382  0.855334  1
  O  O28  1  0.040626  0.898488  0.163174  1
  O  O29  1  0.061663  0.601512  0.439115  1
  O  O30  1  0.401716  0.953618  0.354193  1
  O  O31  1  0.594131  0.547030  0.818294  1
  O  O32  1  0.389050  0.288813  0.855226  1
  O  O33  1  0.336826  0.601512  0.459374  1
  O  O34  1  0.855961  0.788813  0.822136  1
  O  O35  1  0.677864  0.711187  0.644039  1
  O  O36  1  0.355334  0.046382  0.807812  1
  O  O37  1  0.145807  0.546382  0.098284  1
  O  O38  1  0.854193  0.453618  0.901716  1
  O  O39  1  0.644666  0.953618  0.192188  1
  O  O40  1  0.322136  0.288813  0.355961  1
  O  O41  1  0.144039  0.211187  0.177864  1
  O  O42  1  0.663174  0.398488  0.540626  1
  O  O43  1  0.610950  0.711187  0.144774  1
  O  O44  1  0.405869  0.452970  0.181706  1
  O  O45  1  0.598284  0.046382  0.645807  1
  O  O46  1  0.938337  0.398488  0.560886  1
  O  O47  1  0.959374  0.101512  0.836826  1
  O  O48  1  0.692188  0.453618  0.144666  1
  O  O49  1  0.318294  0.047030  0.094131  1
  O  O50  1  0.858839  0.547030  0.134676  1
  O  O51  1  0.634676  0.047030  0.358839  1
  O  O52  1  0.939114  0.101512  0.561663  1
  O  O53  1  0.644774  0.211187  0.110950  1
