# generated using pymatgen
data_Na3Mn2P2(CO7)2
_symmetry_space_group_name_H-M   'P 1'
_cell_length_a   8.92683820
_cell_length_b   8.39216617
_cell_length_c   8.39621164
_cell_angle_alpha   103.65977592
_cell_angle_beta   89.94518235
_cell_angle_gamma   87.86259873
_symmetry_Int_Tables_number   1
_chemical_formula_structural   Na3Mn2P2(CO7)2
_chemical_formula_sum   'Na6 Mn4 P4 C4 O28'
_cell_volume   610.75899273
_cell_formula_units_Z   2
loop_
 _symmetry_equiv_pos_site_id
 _symmetry_equiv_pos_as_xyz
  1  'x, y, z'
loop_
 _atom_site_type_symbol
 _atom_site_label
 _atom_site_symmetry_multiplicity
 _atom_site_fract_x
 _atom_site_fract_y
 _atom_site_fract_z
 _atom_site_occupancy
  Na  Na0  1  0.754617  0.401219  0.365340  1
  Na  Na1  1  0.758738  0.121851  0.633294  1
  Na  Na2  1  0.764272  0.875397  0.878656  1
  Na  Na3  1  0.245383  0.098781  0.134660  1
  Na  Na4  1  0.241262  0.378149  0.866706  1
  Na  Na5  1  0.235728  0.624603  0.621344  1
  Mn  Mn6  1  0.656493  0.480164  0.738748  1
  Mn  Mn7  1  0.651422  0.977559  0.233195  1
  Mn  Mn8  1  0.348578  0.522441  0.266805  1
  Mn  Mn9  1  0.343507  0.019836  0.761252  1
  P  P10  1  0.570033  0.257401  0.021607  1
  P  P11  1  0.574461  0.771440  0.511528  1
  P  P12  1  0.429967  0.242599  0.478393  1
  P  P13  1  0.425539  0.728560  0.988472  1
  C  C14  1  0.918428  0.011395  0.260704  1
  C  C15  1  0.924464  0.508277  0.759216  1
  C  C16  1  0.081572  0.488605  0.239296  1
  C  C17  1  0.075536  0.991723  0.740784  1
  O  O18  1  0.946625  0.469310  0.226219  1
  O  O19  1  0.937311  0.979579  0.737144  1
  O  O20  1  0.854697  0.392524  0.652094  1
  O  O21  1  0.851548  0.896270  0.151480  1
  O  O22  1  0.812044  0.106059  0.356099  1
  O  O23  1  0.826712  0.605239  0.857026  1
  O  O24  1  0.664706  0.123926  0.084286  1
  O  O25  1  0.678052  0.647644  0.567625  1
  O  O26  1  0.665577  0.306982  0.892567  1
  O  O27  1  0.662054  0.847006  0.388764  1
  O  O28  1  0.529876  0.405544  0.171230  1
  O  O29  1  0.581111  0.313489  0.550164  1
  O  O30  1  0.572359  0.807884  0.063930  1
  O  O31  1  0.530418  0.915150  0.664268  1
  O  O32  1  0.470124  0.094456  0.328770  1
  O  O33  1  0.418889  0.186511  0.949836  1
  O  O34  1  0.427641  0.692116  0.436070  1
  O  O35  1  0.469582  0.584850  0.835732  1
  O  O36  1  0.334423  0.193018  0.607433  1
  O  O37  1  0.335294  0.376074  0.415714  1
  O  O38  1  0.337946  0.652994  0.111236  1
  O  O39  1  0.321948  0.852356  0.932375  1
  O  O40  1  0.187956  0.393941  0.143901  1
  O  O41  1  0.173288  0.894761  0.642974  1
  O  O42  1  0.145303  0.107476  0.847906  1
  O  O43  1  0.148452  0.603730  0.348520  1
  O  O44  1  0.053375  0.030690  0.273781  1
  O  O45  1  0.062689  0.520421  0.762856  1
