# generated using pymatgen
data_Ti3Cr(PO4)6
_symmetry_space_group_name_H-M   'P 1'
_cell_length_a   8.79139328
_cell_length_b   8.79139286
_cell_length_c   8.79139368
_cell_angle_alpha   58.47059997
_cell_angle_beta   58.47060323
_cell_angle_gamma   58.47059779
_symmetry_Int_Tables_number   1
_chemical_formula_structural   Ti3Cr(PO4)6
_chemical_formula_sum   'Ti3 Cr1 P6 O24'
_cell_volume   463.64864696
_cell_formula_units_Z   1
loop_
 _symmetry_equiv_pos_site_id
 _symmetry_equiv_pos_as_xyz
  1  'x, y, z'
loop_
 _atom_site_type_symbol
 _atom_site_label
 _atom_site_symmetry_multiplicity
 _atom_site_fract_x
 _atom_site_fract_y
 _atom_site_fract_z
 _atom_site_occupancy
  Ti  Ti0  1  0.139656  0.139656  0.139656  1
  Ti  Ti1  1  0.360272  0.360272  0.360272  1
  Ti  Ti2  1  0.640251  0.640251  0.640251  1
  Cr  Cr3  1  0.858810  0.858810  0.858810  1
  P  P4  1  0.031972  0.749206  0.469203  1
  P  P5  1  0.469203  0.031972  0.749206  1
  P  P6  1  0.749206  0.469203  0.031972  1
  P  P7  1  0.246311  0.535314  0.967031  1
  P  P8  1  0.535314  0.967031  0.246311  1
  P  P9  1  0.967031  0.246311  0.535314  1
  O  O10  1  0.139672  0.270573  0.510861  1
  O  O11  1  0.270573  0.510861  0.139672  1
  O  O12  1  0.060671  0.923132  0.290049  1
  O  O13  1  0.510861  0.139672  0.270573  1
  O  O14  1  0.212463  0.574146  0.446410  1
  O  O15  1  0.999270  0.782206  0.645224  1
  O  O16  1  0.290049  0.060671  0.923132  1
  O  O17  1  0.446410  0.212463  0.574146  1
  O  O18  1  0.574146  0.446410  0.212463  1
  O  O19  1  0.215066  0.365573  0.996434  1
  O  O20  1  0.066370  0.720169  0.934563  1
  O  O21  1  0.365573  0.996434  0.215066  1
  O  O22  1  0.645224  0.999270  0.782206  1
  O  O23  1  0.923132  0.290049  0.060671  1
  O  O24  1  0.782206  0.645224  0.999270  1
  O  O25  1  0.415732  0.569589  0.784738  1
  O  O26  1  0.569589  0.784738  0.415732  1
  O  O27  1  0.720169  0.934563  0.066370  1
  O  O28  1  0.996434  0.215066  0.365573  1
  O  O29  1  0.784738  0.415732  0.569589  1
  O  O30  1  0.498874  0.860922  0.719269  1
  O  O31  1  0.934563  0.066370  0.720169  1
  O  O32  1  0.719269  0.498874  0.860922  1
  O  O33  1  0.860922  0.719269  0.498874  1
