# generated using pymatgen
data_Na5Sn2P(CO4)4
_symmetry_space_group_name_H-M   'P 1'
_cell_length_a   10.14264697
_cell_length_b   9.92213292
_cell_length_c   10.20566279
_cell_angle_alpha   60.49887717
_cell_angle_beta   60.75552125
_cell_angle_gamma   61.13427398
_symmetry_Int_Tables_number   1
_chemical_formula_structural   Na5Sn2P(CO4)4
_chemical_formula_sum   'Na10 Sn4 P2 C8 O32'
_cell_volume   739.24195230
_cell_formula_units_Z   2
loop_
 _symmetry_equiv_pos_site_id
 _symmetry_equiv_pos_as_xyz
  1  'x, y, z'
loop_
 _atom_site_type_symbol
 _atom_site_label
 _atom_site_symmetry_multiplicity
 _atom_site_fract_x
 _atom_site_fract_y
 _atom_site_fract_z
 _atom_site_occupancy
  Na  Na0  1  0.672971  0.070286  0.070434  1
  Na  Na1  1  0.929566  0.313690  0.327029  1
  Na  Na2  1  0.069938  0.072246  0.672022  1
  Na  Na3  1  0.069443  0.680557  0.069443  1
  Na  Na4  1  0.672022  0.685795  0.069938  1
  Na  Na5  1  0.327978  0.314205  0.930062  1
  Na  Na6  1  0.930062  0.927754  0.327978  1
  Na  Na7  1  0.930557  0.319443  0.930557  1
  Na  Na8  1  0.070434  0.686310  0.672971  1
  Na  Na9  1  0.327029  0.929714  0.929566  1
  Sn  Sn10  1  0.500000  0.500000  0.000000  1
  Sn  Sn11  1  0.500000  0.000000  0.500000  1
  Sn  Sn12  1  0.000000  0.500000  0.500000  1
  Sn  Sn13  1  0.500000  0.500000  0.500000  1
  P  P14  1  0.125278  0.124722  0.125278  1
  P  P15  1  0.874722  0.875278  0.874722  1
  C  C16  1  0.289576  0.263678  0.282350  1
  C  C17  1  0.659167  0.281575  0.287014  1
  C  C18  1  0.287014  0.272243  0.659167  1
  C  C19  1  0.282350  0.664396  0.289576  1
  C  C20  1  0.717650  0.335604  0.710424  1
  C  C21  1  0.712986  0.727757  0.340833  1
  C  C22  1  0.340833  0.718425  0.712986  1
  C  C23  1  0.710424  0.736322  0.717650  1
  O  O24  1  0.310311  0.063961  0.057628  1
  O  O25  1  0.058022  0.059271  0.065702  1
  O  O26  1  0.065702  0.317005  0.058022  1
  O  O27  1  0.057628  0.068100  0.310311  1
  O  O28  1  0.409168  0.259158  0.153726  1
  O  O29  1  0.648431  0.143233  0.309553  1
  O  O30  1  0.688801  0.383992  0.146046  1
  O  O31  1  0.302263  0.149778  0.423051  1
  O  O32  1  0.154811  0.378325  0.285071  1
  O  O33  1  0.645132  0.304438  0.409600  1
  O  O34  1  0.285071  0.681793  0.154811  1
  O  O35  1  0.409600  0.140830  0.645132  1
  O  O36  1  0.846274  0.322052  0.590832  1
  O  O37  1  0.690447  0.601216  0.351569  1
  O  O38  1  0.423051  0.624907  0.302263  1
  O  O39  1  0.146046  0.281160  0.688801  1
  O  O40  1  0.576949  0.375093  0.697737  1
  O  O41  1  0.853954  0.718840  0.311199  1
  O  O42  1  0.309553  0.398784  0.648431  1
  O  O43  1  0.153726  0.677948  0.409168  1
  O  O44  1  0.590400  0.859170  0.354868  1
  O  O45  1  0.714929  0.318207  0.845189  1
  O  O46  1  0.354868  0.695562  0.590400  1
  O  O47  1  0.845189  0.621675  0.714929  1
  O  O48  1  0.311199  0.616008  0.853954  1
  O  O49  1  0.697737  0.850222  0.576949  1
  O  O50  1  0.351569  0.856767  0.690447  1
  O  O51  1  0.590832  0.740842  0.846274  1
  O  O52  1  0.942372  0.931900  0.689689  1
  O  O53  1  0.934298  0.682995  0.941978  1
  O  O54  1  0.941978  0.940729  0.934298  1
  O  O55  1  0.689689  0.936039  0.942372  1
