# generated using pymatgen
data_Na4Cu2C4SO16
_symmetry_space_group_name_H-M   'P 1'
_cell_length_a   9.93221511
_cell_length_b   9.63796969
_cell_length_c   9.93221524
_cell_angle_alpha   60.58764118
_cell_angle_beta   92.68897388
_cell_angle_gamma   60.58764710
_symmetry_Int_Tables_number   1
_chemical_formula_structural   Na4Cu2C4SO16
_chemical_formula_sum   'Na8 Cu4 C8 S2 O32'
_cell_volume   667.46063785
_cell_formula_units_Z   2
loop_
 _symmetry_equiv_pos_site_id
 _symmetry_equiv_pos_as_xyz
  1  'x, y, z'
loop_
 _atom_site_type_symbol
 _atom_site_label
 _atom_site_symmetry_multiplicity
 _atom_site_fract_x
 _atom_site_fract_y
 _atom_site_fract_z
 _atom_site_occupancy
  Na  Na0  1  0.087010  0.825981  0.837010  1
  Na  Na1  1  0.085738  0.250000  0.835738  1
  Na  Na2  1  0.335738  0.750000  0.585738  1
  Na  Na3  1  0.337010  0.325981  0.587010  1
  Na  Na4  1  0.662990  0.674019  0.412990  1
  Na  Na5  1  0.664262  0.250000  0.414262  1
  Na  Na6  1  0.914262  0.750000  0.164262  1
  Na  Na7  1  0.912990  0.174019  0.162990  1
  Cu  Cu8  1  0.000000  0.500000  0.000000  1
  Cu  Cu9  1  0.500000  0.000000  0.500000  1
  Cu  Cu10  1  0.500000  0.500000  0.000000  1
  Cu  Cu11  1  0.500000  0.000000  0.000000  1
  C  C12  1  0.354449  0.931410  0.776970  1
  C  C13  1  0.276970  0.431410  0.854449  1
  C  C14  1  0.714141  0.931410  0.791619  1
  C  C15  1  0.708381  0.568590  0.785859  1
  C  C16  1  0.291619  0.431410  0.214141  1
  C  C17  1  0.285859  0.068590  0.208381  1
  C  C18  1  0.723030  0.568590  0.145551  1
  C  C19  1  0.645551  0.068590  0.223030  1
  S  S20  1  0.125000  0.750000  0.375000  1
  S  S21  1  0.875000  0.250000  0.625000  1
  O  O22  1  0.349258  0.792035  0.893041  1
  O  O23  1  0.065695  0.878686  0.432818  1
  O  O24  1  0.361125  0.947230  0.641434  1
  O  O25  1  0.141434  0.447230  0.861125  1
  O  O26  1  0.691645  0.947230  0.911336  1
  O  O27  1  0.295614  0.559640  0.844757  1
  O  O28  1  0.055619  0.878686  0.188496  1
  O  O29  1  0.067182  0.621314  0.434305  1
  O  O30  1  0.404397  0.940360  0.355254  1
  O  O31  1  0.588664  0.552770  0.808355  1
  O  O32  1  0.393041  0.292035  0.849258  1
  O  O33  1  0.311504  0.621314  0.444381  1
  O  O34  1  0.858707  0.792035  0.814924  1
  O  O35  1  0.685076  0.707965  0.641293  1
  O  O36  1  0.344757  0.059640  0.795614  1
  O  O37  1  0.144746  0.559640  0.095603  1
  O  O38  1  0.855254  0.440360  0.904397  1
  O  O39  1  0.655243  0.940360  0.204386  1
  O  O40  1  0.314924  0.292035  0.358707  1
  O  O41  1  0.141293  0.207965  0.185076  1
  O  O42  1  0.688496  0.378686  0.555619  1
  O  O43  1  0.606959  0.707965  0.150742  1
  O  O44  1  0.411336  0.447230  0.191645  1
  O  O45  1  0.595603  0.059640  0.644746  1
  O  O46  1  0.932818  0.378686  0.565695  1
  O  O47  1  0.944381  0.121314  0.811504  1
  O  O48  1  0.704386  0.440360  0.155243  1
  O  O49  1  0.308355  0.052770  0.088664  1
  O  O50  1  0.858566  0.552770  0.138875  1
  O  O51  1  0.638875  0.052770  0.358566  1
  O  O52  1  0.934305  0.121314  0.567182  1
  O  O53  1  0.650742  0.207965  0.106959  1
