# generated using pymatgen
data_NaCrCSO7
_symmetry_space_group_name_H-M   'P 1'
_cell_length_a   9.03593800
_cell_length_b   6.41574909
_cell_length_c   5.28699331
_cell_angle_alpha   90.00000000
_cell_angle_beta   87.65192035
_cell_angle_gamma   90.00000000
_symmetry_Int_Tables_number   1
_chemical_formula_structural   NaCrCSO7
_chemical_formula_sum   'Na2 Cr2 C2 S2 O14'
_cell_volume   306.24187351
_cell_formula_units_Z   2
loop_
 _symmetry_equiv_pos_site_id
 _symmetry_equiv_pos_as_xyz
  1  'x, y, z'
loop_
 _atom_site_type_symbol
 _atom_site_label
 _atom_site_symmetry_multiplicity
 _atom_site_fract_x
 _atom_site_fract_y
 _atom_site_fract_z
 _atom_site_occupancy
  Na  Na0  1  0.221775  0.484696  0.238979  1
  Na  Na1  1  0.778225  0.984696  0.761021  1
  Cr  Cr2  1  0.338438  0.759373  0.779261  1
  Cr  Cr3  1  0.661562  0.259373  0.220739  1
  C  C4  1  0.077954  0.742358  0.724379  1
  C  C5  1  0.922046  0.242358  0.275621  1
  S  S6  1  0.428464  0.254727  0.722982  1
  S  S7  1  0.571536  0.754727  0.277018  1
  O  O8  1  0.056438  0.243886  0.306331  1
  O  O9  1  0.143187  0.744840  0.946191  1
  O  O10  1  0.183504  0.741149  0.538119  1
  O  O11  1  0.332600  0.072826  0.782970  1
  O  O12  1  0.339212  0.441046  0.802603  1
  O  O13  1  0.432121  0.745564  0.137742  1
  O  O14  1  0.464792  0.267385  0.444164  1
  O  O15  1  0.535208  0.767385  0.555836  1
  O  O16  1  0.567879  0.245564  0.862258  1
  O  O17  1  0.660788  0.941046  0.197397  1
  O  O18  1  0.667400  0.572826  0.217030  1
  O  O19  1  0.816496  0.241149  0.461881  1
  O  O20  1  0.856813  0.244840  0.053809  1
  O  O21  1  0.943562  0.743886  0.693669  1
