# generated using pymatgen
data_Na4Cr2P(CO4)4
_symmetry_space_group_name_H-M   'P 1'
_cell_length_a   9.86619165
_cell_length_b   9.69312540
_cell_length_c   9.86619130
_cell_angle_alpha   60.87434409
_cell_angle_beta   92.50017995
_cell_angle_gamma   60.87434646
_symmetry_Int_Tables_number   1
_chemical_formula_structural   Na4Cr2P(CO4)4
_chemical_formula_sum   'Na8 Cr4 P2 C8 O32'
_cell_volume   669.60035606
_cell_formula_units_Z   2
loop_
 _symmetry_equiv_pos_site_id
 _symmetry_equiv_pos_as_xyz
  1  'x, y, z'
loop_
 _atom_site_type_symbol
 _atom_site_label
 _atom_site_symmetry_multiplicity
 _atom_site_fract_x
 _atom_site_fract_y
 _atom_site_fract_z
 _atom_site_occupancy
  Na  Na0  1  0.084779  0.830442  0.834779  1
  Na  Na1  1  0.085080  0.250000  0.835080  1
  Na  Na2  1  0.335080  0.750000  0.585080  1
  Na  Na3  1  0.334779  0.330442  0.584779  1
  Na  Na4  1  0.665221  0.669558  0.415221  1
  Na  Na5  1  0.664920  0.250000  0.414920  1
  Na  Na6  1  0.914920  0.750000  0.164920  1
  Na  Na7  1  0.915221  0.169558  0.165221  1
  Cr  Cr8  1  0.000000  0.500000  0.000000  1
  Cr  Cr9  1  0.500000  0.000000  0.500000  1
  Cr  Cr10  1  0.500000  0.500000  0.000000  1
  Cr  Cr11  1  0.500000  0.000000  0.000000  1
  P  P12  1  0.125000  0.750000  0.375000  1
  P  P13  1  0.875000  0.250000  0.625000  1
  C  C14  1  0.360850  0.928012  0.779956  1
  C  C15  1  0.279956  0.428012  0.860850  1
  C  C16  1  0.711137  0.928012  0.792030  1
  C  C17  1  0.707970  0.571988  0.788863  1
  C  C18  1  0.292030  0.428012  0.211137  1
  C  C19  1  0.288863  0.071988  0.207970  1
  C  C20  1  0.720044  0.571988  0.139150  1
  C  C21  1  0.639150  0.071988  0.220044  1
  O  O22  1  0.355596  0.788399  0.893335  1
  O  O23  1  0.063409  0.882007  0.436457  1
  O  O24  1  0.365370  0.950179  0.640130  1
  O  O25  1  0.140130  0.450179  0.865370  1
  O  O26  1  0.684451  0.950179  0.909690  1
  O  O27  1  0.305178  0.550762  0.855492  1
  O  O28  1  0.054584  0.882007  0.181537  1
  O  O29  1  0.063543  0.617993  0.436591  1
  O  O30  1  0.406253  0.949238  0.355940  1
  O  O31  1  0.590310  0.549821  0.815549  1
  O  O32  1  0.393334  0.288399  0.855596  1
  O  O33  1  0.318463  0.617993  0.445416  1
  O  O34  1  0.856005  0.788399  0.818267  1
  O  O35  1  0.681733  0.711601  0.643995  1
  O  O36  1  0.355492  0.050762  0.805178  1
  O  O37  1  0.144060  0.550762  0.093747  1
  O  O38  1  0.855940  0.449238  0.906253  1
  O  O39  1  0.644508  0.949238  0.194822  1
  O  O40  1  0.318267  0.288399  0.356005  1
  O  O41  1  0.143995  0.211601  0.181733  1
  O  O42  1  0.681537  0.382007  0.554584  1
  O  O43  1  0.606665  0.711601  0.144404  1
  O  O44  1  0.409690  0.450179  0.184451  1
  O  O45  1  0.593747  0.050762  0.644060  1
  O  O46  1  0.936457  0.382007  0.563409  1
  O  O47  1  0.945416  0.117993  0.818463  1
  O  O48  1  0.694822  0.449238  0.144508  1
  O  O49  1  0.315549  0.049821  0.090310  1
  O  O50  1  0.859870  0.549821  0.134630  1
  O  O51  1  0.634630  0.049821  0.359870  1
  O  O52  1  0.936591  0.117993  0.563543  1
  O  O53  1  0.644404  0.211601  0.106665  1
