# generated using pymatgen
data_Na4Cr2As(CO4)4
_symmetry_space_group_name_H-M   'P 1'
_cell_length_a   9.91795576
_cell_length_b   9.77894139
_cell_length_c   9.91795546
_cell_angle_alpha   60.75694370
_cell_angle_beta   92.10113366
_cell_angle_gamma   60.75694424
_symmetry_Int_Tables_number   1
_chemical_formula_structural   Na4Cr2As(CO4)4
_chemical_formula_sum   'Na8 Cr4 As2 C8 O32'
_cell_volume   682.79738126
_cell_formula_units_Z   2
loop_
 _symmetry_equiv_pos_site_id
 _symmetry_equiv_pos_as_xyz
  1  'x, y, z'
loop_
 _atom_site_type_symbol
 _atom_site_label
 _atom_site_symmetry_multiplicity
 _atom_site_fract_x
 _atom_site_fract_y
 _atom_site_fract_z
 _atom_site_occupancy
  Na  Na0  1  0.088486  0.823028  0.838486  1
  Na  Na1  1  0.088295  0.250000  0.838295  1
  Na  Na2  1  0.338295  0.750000  0.588295  1
  Na  Na3  1  0.338486  0.323028  0.588486  1
  Na  Na4  1  0.661514  0.676972  0.411514  1
  Na  Na5  1  0.661705  0.250000  0.411705  1
  Na  Na6  1  0.911705  0.750000  0.161705  1
  Na  Na7  1  0.911514  0.176972  0.161514  1
  Cr  Cr8  1  0.000000  0.500000  0.000000  1
  Cr  Cr9  1  0.500000  0.000000  0.500000  1
  Cr  Cr10  1  0.500000  0.500000  0.000000  1
  Cr  Cr11  1  0.500000  0.000000  0.000000  1
  As  As12  1  0.125000  0.750000  0.375000  1
  As  As13  1  0.875000  0.250000  0.625000  1
  C  C14  1  0.365277  0.924096  0.782834  1
  C  C15  1  0.282834  0.424096  0.865277  1
  C  C16  1  0.710627  0.924096  0.793070  1
  C  C17  1  0.706930  0.575904  0.789373  1
  C  C18  1  0.293070  0.424096  0.210627  1
  C  C19  1  0.289373  0.075904  0.206930  1
  C  C20  1  0.717166  0.575904  0.134723  1
  C  C21  1  0.634723  0.075904  0.217166  1
  O  O22  1  0.359792  0.784785  0.893649  1
  O  O23  1  0.059988  0.898774  0.439540  1
  O  O24  1  0.368182  0.950345  0.642358  1
  O  O25  1  0.142358  0.450345  0.868182  1
  O  O26  1  0.681473  0.950345  0.907297  1
  O  O27  1  0.310440  0.544199  0.859802  1
  O  O28  1  0.041238  0.898774  0.161685  1
  O  O29  1  0.060460  0.601226  0.440012  1
  O  O30  1  0.404001  0.955801  0.354639  1
  O  O31  1  0.592703  0.549655  0.818527  1
  O  O32  1  0.393649  0.284785  0.859792  1
  O  O33  1  0.338315  0.601226  0.458762  1
  O  O34  1  0.855423  0.784785  0.821565  1
  O  O35  1  0.678435  0.715215  0.644577  1
  O  O36  1  0.359802  0.044199  0.810440  1
  O  O37  1  0.145361  0.544199  0.095999  1
  O  O38  1  0.854639  0.455801  0.904001  1
  O  O39  1  0.640198  0.955801  0.189560  1
  O  O40  1  0.321565  0.284785  0.355423  1
  O  O41  1  0.144577  0.215215  0.178435  1
  O  O42  1  0.661685  0.398774  0.541238  1
  O  O43  1  0.606351  0.715215  0.140208  1
  O  O44  1  0.407297  0.450345  0.181473  1
  O  O45  1  0.595999  0.044199  0.645361  1
  O  O46  1  0.939540  0.398774  0.559988  1
  O  O47  1  0.958762  0.101226  0.838315  1
  O  O48  1  0.689560  0.455801  0.140198  1
  O  O49  1  0.318527  0.049655  0.092703  1
  O  O50  1  0.857642  0.549655  0.131818  1
  O  O51  1  0.631818  0.049655  0.357642  1
  O  O52  1  0.940012  0.101226  0.560460  1
  O  O53  1  0.640208  0.215215  0.106351  1
