# generated using pymatgen
data_NaCuO2
_symmetry_space_group_name_H-M   'P 1'
_cell_length_a   2.76682405
_cell_length_b   5.91806417
_cell_length_c   7.07967900
_cell_angle_alpha   90.00000000
_cell_angle_beta   90.00000000
_cell_angle_gamma   103.51858948
_symmetry_Int_Tables_number   1
_chemical_formula_structural   NaCuO2
_chemical_formula_sum   'Na2 Cu2 O4'
_cell_volume   112.71259319
_cell_formula_units_Z   2
loop_
 _symmetry_equiv_pos_site_id
 _symmetry_equiv_pos_as_xyz
  1  'x, y, z'
loop_
 _atom_site_type_symbol
 _atom_site_label
 _atom_site_symmetry_multiplicity
 _atom_site_fract_x
 _atom_site_fract_y
 _atom_site_fract_z
 _atom_site_occupancy
  Na  Na0  1  0.608335  0.216671  0.385963  1
  Na  Na1  1  0.391665  0.783329  0.885963  1
  Cu  Cu2  1  0.145049  0.290098  0.986195  1
  Cu  Cu3  1  0.854951  0.709902  0.486195  1
  O  O4  1  0.552968  0.105935  0.070477  1
  O  O5  1  0.736440  0.472880  0.904176  1
  O  O6  1  0.263560  0.527120  0.404176  1
  O  O7  1  0.447032  0.894065  0.570477  1
