# generated using pymatgen
data_Na2FeBPO7
_symmetry_space_group_name_H-M   'P 1'
_cell_length_a   8.89085200
_cell_length_b   6.82127659
_cell_length_c   5.21406846
_cell_angle_alpha   90.00000000
_cell_angle_beta   88.48264638
_cell_angle_gamma   90.00000000
_symmetry_Int_Tables_number   1
_chemical_formula_structural   Na2FeBPO7
_chemical_formula_sum   'Na4 Fe2 B2 P2 O14'
_cell_volume   316.10652315
_cell_formula_units_Z   2
loop_
 _symmetry_equiv_pos_site_id
 _symmetry_equiv_pos_as_xyz
  1  'x, y, z'
loop_
 _atom_site_type_symbol
 _atom_site_label
 _atom_site_symmetry_multiplicity
 _atom_site_fract_x
 _atom_site_fract_y
 _atom_site_fract_z
 _atom_site_occupancy
  Na  Na0  1  0.233530  0.493895  0.237545  1
  Na  Na1  1  0.233530  0.006105  0.237545  1
  Na  Na2  1  0.766470  0.506105  0.762455  1
  Na  Na3  1  0.766470  0.993895  0.762455  1
  Fe  Fe4  1  0.344457  0.750000  0.782833  1
  Fe  Fe5  1  0.655543  0.250000  0.217167  1
  B  B6  1  0.076316  0.750000  0.726448  1
  B  B7  1  0.923684  0.250000  0.273552  1
  P  P8  1  0.427546  0.250000  0.721598  1
  P  P9  1  0.572454  0.750000  0.278402  1
  O  O10  1  0.068706  0.250000  0.299111  1
  O  O11  1  0.155252  0.750000  0.958069  1
  O  O12  1  0.192865  0.750000  0.533794  1
  O  O13  1  0.336672  0.064740  0.784792  1
  O  O14  1  0.336672  0.435260  0.784792  1
  O  O15  1  0.422397  0.750000  0.127336  1
  O  O16  1  0.473782  0.250000  0.425104  1
  O  O17  1  0.526218  0.750000  0.574896  1
  O  O18  1  0.577603  0.250000  0.872664  1
  O  O19  1  0.663328  0.564740  0.215208  1
  O  O20  1  0.663328  0.935260  0.215208  1
  O  O21  1  0.807135  0.250000  0.466206  1
  O  O22  1  0.844748  0.250000  0.041931  1
  O  O23  1  0.931294  0.750000  0.700889  1
