# generated using pymatgen
data_Na2CoBAsO7
_symmetry_space_group_name_H-M   'P 1'
_cell_length_a   9.20355650
_cell_length_b   6.41573360
_cell_length_c   5.40030212
_cell_angle_alpha   90.00000000
_cell_angle_beta   87.20289875
_cell_angle_gamma   90.00000000
_symmetry_Int_Tables_number   1
_chemical_formula_structural   Na2CoBAsO7
_chemical_formula_sum   'Na4 Co2 B2 As2 O14'
_cell_volume   318.49479460
_cell_formula_units_Z   2
loop_
 _symmetry_equiv_pos_site_id
 _symmetry_equiv_pos_as_xyz
  1  'x, y, z'
loop_
 _atom_site_type_symbol
 _atom_site_label
 _atom_site_symmetry_multiplicity
 _atom_site_fract_x
 _atom_site_fract_y
 _atom_site_fract_z
 _atom_site_occupancy
  Na  Na0  1  0.221392  0.999720  0.235034  1
  Na  Na1  1  0.221392  0.500280  0.235034  1
  Na  Na2  1  0.778608  0.499720  0.764966  1
  Na  Na3  1  0.778608  0.000280  0.764966  1
  Co  Co4  1  0.332923  0.750000  0.782374  1
  Co  Co5  1  0.667077  0.250000  0.217626  1
  B  B6  1  0.077681  0.750000  0.728923  1
  B  B7  1  0.922319  0.250000  0.271077  1
  As  As8  1  0.434197  0.250000  0.713550  1
  As  As9  1  0.565803  0.750000  0.286450  1
  O  O10  1  0.062171  0.250000  0.302873  1
  O  O11  1  0.149324  0.750000  0.953020  1
  O  O12  1  0.193819  0.750000  0.542842  1
  O  O13  1  0.317085  0.045447  0.796297  1
  O  O14  1  0.317085  0.454553  0.796297  1
  O  O15  1  0.410268  0.750000  0.124733  1
  O  O16  1  0.471996  0.250000  0.394287  1
  O  O17  1  0.528004  0.750000  0.605713  1
  O  O18  1  0.589732  0.250000  0.875267  1
  O  O19  1  0.682915  0.545447  0.203703  1
  O  O20  1  0.682915  0.954553  0.203703  1
  O  O21  1  0.806181  0.250000  0.457158  1
  O  O22  1  0.850676  0.250000  0.046980  1
  O  O23  1  0.937829  0.750000  0.697127  1
