# generated using pymatgen
data_Na2VBAsO7
_symmetry_space_group_name_H-M   'P 1'
_cell_length_a   9.24354390
_cell_length_b   6.57710320
_cell_length_c   5.55319615
_cell_angle_alpha   90.00000000
_cell_angle_beta   87.02575192
_cell_angle_gamma   90.00000000
_symmetry_Int_Tables_number   1
_chemical_formula_structural   Na2VBAsO7
_chemical_formula_sum   'Na4 V2 B2 As2 O14'
_cell_volume   337.15590518
_cell_formula_units_Z   2
loop_
 _symmetry_equiv_pos_site_id
 _symmetry_equiv_pos_as_xyz
  1  'x, y, z'
loop_
 _atom_site_type_symbol
 _atom_site_label
 _atom_site_symmetry_multiplicity
 _atom_site_fract_x
 _atom_site_fract_y
 _atom_site_fract_z
 _atom_site_occupancy
  Na  Na0  1  0.206898  0.989161  0.239812  1
  Na  Na1  1  0.206898  0.510839  0.239812  1
  Na  Na2  1  0.793102  0.489161  0.760188  1
  Na  Na3  1  0.793102  0.010839  0.760188  1
  V  V4  1  0.326503  0.750000  0.782532  1
  V  V5  1  0.673497  0.250000  0.217468  1
  B  B6  1  0.072197  0.750000  0.723919  1
  B  B7  1  0.927803  0.250000  0.276081  1
  As  As8  1  0.439963  0.250000  0.717295  1
  As  As9  1  0.560037  0.750000  0.282705  1
  O  O10  1  0.066791  0.250000  0.310893  1
  O  O11  1  0.142524  0.750000  0.947693  1
  O  O12  1  0.189916  0.750000  0.543100  1
  O  O13  1  0.332201  0.043236  0.800821  1
  O  O14  1  0.332201  0.456764  0.800821  1
  O  O15  1  0.403859  0.750000  0.130096  1
  O  O16  1  0.475871  0.250000  0.408466  1
  O  O17  1  0.524129  0.750000  0.591534  1
  O  O18  1  0.596141  0.250000  0.869904  1
  O  O19  1  0.667799  0.543236  0.199179  1
  O  O20  1  0.667799  0.956764  0.199179  1
  O  O21  1  0.810084  0.250000  0.456900  1
  O  O22  1  0.857476  0.250000  0.052307  1
  O  O23  1  0.933209  0.750000  0.689107  1
