# generated using pymatgen
data_Na10(WO3)13
_symmetry_space_group_name_H-M   'P 1'
_cell_length_a   14.06188173
_cell_length_b   6.75574170
_cell_length_c   8.72349043
_cell_angle_alpha   104.99775455
_cell_angle_beta   104.39670173
_cell_angle_gamma   80.74261588
_symmetry_Int_Tables_number   1
_chemical_formula_structural   Na10(WO3)13
_chemical_formula_sum   'Na10 W13 O39'
_cell_volume   771.21352629
_cell_formula_units_Z   1
loop_
 _symmetry_equiv_pos_site_id
 _symmetry_equiv_pos_as_xyz
  1  'x, y, z'
loop_
 _atom_site_type_symbol
 _atom_site_label
 _atom_site_symmetry_multiplicity
 _atom_site_fract_x
 _atom_site_fract_y
 _atom_site_fract_z
 _atom_site_occupancy
  Na  Na0  1  0.922735  0.229947  0.615868  1
  Na  Na1  1  0.307928  0.076544  0.539207  1
  Na  Na2  1  0.769439  0.693053  0.845788  1
  Na  Na3  1  0.538752  0.384488  0.692474  1
  Na  Na4  1  0.153831  0.539658  0.769935  1
  Na  Na5  1  0.461881  0.616207  0.307209  1
  Na  Na6  1  0.845864  0.461666  0.230603  1
  Na  Na7  1  0.615177  0.153101  0.077289  1
  Na  Na8  1  0.230784  0.306496  0.153142  1
  Na  Na9  1  0.076688  0.769610  0.383870  1
  W  W10  1  0.153944  0.037832  0.771706  1
  W  W11  1  0.384692  0.345380  0.923429  1
  W  W12  1  0.770115  0.190459  0.845295  1
  W  W13  1  0.076244  0.267373  0.382380  1
  W  W14  1  0.692308  0.423077  0.461538  1
  W  W15  1  0.462466  0.112733  0.306562  1
  W  W16  1  0.308371  0.578781  0.540697  1
  W  W17  1  0.922149  0.733421  0.616515  1
  W  W18  1  0.538990  0.885138  0.692526  1
  W  W19  1  0.614501  0.655695  0.077782  1
  W  W20  1  0.845626  0.961016  0.230551  1
  W  W21  1  0.999923  0.500774  0.999648  1
  W  W22  1  0.230671  0.808322  0.151371  1
  O  O23  1  0.268019  0.195694  0.845534  1
  O  O24  1  0.077726  0.271954  0.883865  1
  O  O25  1  0.653678  0.039509  0.772175  1
  O  O26  1  0.462401  0.118155  0.806418  1
  O  O27  1  0.692308  0.423077  0.961538  1
  O  O28  1  0.883605  0.349486  0.922145  1
  O  O29  1  0.192308  0.923077  0.961538  1
  O  O30  1  0.345700  0.457967  0.728855  1
  O  O31  1  0.960988  0.612017  0.805791  1
  O  O32  1  0.578834  0.768888  0.884384  1
  O  O33  1  0.731254  0.311327  0.655653  1
  O  O34  1  0.115264  0.153668  0.576568  1
  O  O35  1  0.498076  0.000346  0.500185  1
  O  O36  1  0.961182  0.116362  0.310656  1
  O  O37  1  0.575798  0.272398  0.383638  1
  O  O38  1  0.192308  0.423077  0.461538  1
  O  O39  1  0.155235  0.039086  0.271354  1
  O  O40  1  0.614555  0.651147  0.578145  1
  O  O41  1  0.846130  0.961723  0.730868  1
  O  O42  1  0.999968  0.499857  0.499626  1
  O  O43  1  0.229381  0.807068  0.651723  1
  O  O44  1  0.384648  0.346297  0.423451  1
  O  O45  1  0.770060  0.195007  0.344932  1
  O  O46  1  0.423434  0.729791  0.612421  1
  O  O47  1  0.808817  0.573756  0.539439  1
  O  O48  1  0.038807  0.883658  0.689582  1
  O  O49  1  0.269351  0.692485  0.346509  1
  O  O50  1  0.653362  0.534827  0.267424  1
  O  O51  1  0.805781  0.077265  0.038693  1
  O  O52  1  0.886539  0.845808  0.422892  1
  O  O53  1  0.038916  0.388187  0.194222  1
  O  O54  1  0.423627  0.234137  0.117286  1
  O  O55  1  0.306889  0.574200  0.039211  1
  O  O56  1  0.922214  0.727998  0.116659  1
  O  O57  1  0.538486  0.884431  0.192209  1
  O  O58  1  0.345808  0.962496  0.233495  1
  O  O59  1  0.116596  0.650460  0.077543  1
  O  O60  1  0.730938  0.806645  0.150902  1
  O  O61  1  0.501010  0.496668  0.000932  1
