# generated using pymatgen
data_Na3Fe2P(CO4)4
_symmetry_space_group_name_H-M   'P 1'
_cell_length_a   9.84676326
_cell_length_b   9.92346430
_cell_length_c   9.84676326
_cell_angle_alpha   60.25630340
_cell_angle_beta   89.99833882
_cell_angle_gamma   119.74369660
_symmetry_Int_Tables_number   1
_chemical_formula_structural   Na3Fe2P(CO4)4
_chemical_formula_sum   'Na6 Fe4 P2 C8 O32'
_cell_volume   685.58251009
_cell_formula_units_Z   2
loop_
 _symmetry_equiv_pos_site_id
 _symmetry_equiv_pos_as_xyz
  1  'x, y, z'
loop_
 _atom_site_type_symbol
 _atom_site_label
 _atom_site_symmetry_multiplicity
 _atom_site_fract_x
 _atom_site_fract_y
 _atom_site_fract_z
 _atom_site_occupancy
  Na  Na0  1  0.348143  0.263445  0.332226  1
  Na  Na1  1  0.904329  0.236555  0.915303  1
  Na  Na2  1  0.084697  0.736555  0.095671  1
  Na  Na3  1  0.667774  0.763445  0.651857  1
  Na  Na4  1  0.339967  0.250000  0.910033  1
  Na  Na5  1  0.089967  0.750000  0.660033  1
  Fe  Fe6  1  0.500397  0.992276  0.002514  1
  Fe  Fe7  1  0.508121  0.007724  0.494791  1
  Fe  Fe8  1  0.505209  0.507724  0.491879  1
  Fe  Fe9  1  0.997486  0.492276  0.499603  1
  P  P10  1  0.125084  0.250000  0.124916  1
  P  P11  1  0.875084  0.750000  0.874916  1
  C  C12  1  0.715702  0.075808  0.711133  1
  C  C13  1  0.713059  0.424192  0.360107  1
  C  C14  1  0.357791  0.075318  0.713746  1
  C  C15  1  0.710936  0.424682  0.717527  1
  C  C16  1  0.639893  0.924192  0.286941  1
  C  C17  1  0.288867  0.575808  0.284298  1
  C  C18  1  0.286254  0.575318  0.642209  1
  C  C19  1  0.282473  0.924682  0.289064  1
  O  O20  1  0.646813  0.042752  0.141387  1
  O  O21  1  0.856464  0.219252  0.597633  1
  O  O22  1  0.683115  0.280748  0.362789  1
  O  O23  1  0.393235  0.043635  0.316655  1
  O  O24  1  0.858613  0.542752  0.353187  1
  O  O25  1  0.316976  0.374212  0.064324  1
  O  O26  1  0.061464  0.125788  0.057235  1
  O  O27  1  0.597506  0.452451  0.360700  1
  O  O28  1  0.686849  0.047549  0.854946  1
  O  O29  1  0.352314  0.041823  0.600010  1
  O  O30  1  0.858167  0.458177  0.689509  1
  O  O31  1  0.064723  0.380351  0.057163  1
  O  O32  1  0.062486  0.119649  0.315627  1
  O  O33  1  0.637211  0.780748  0.316885  1
  O  O34  1  0.402367  0.719252  0.143536  1
  O  O35  1  0.683345  0.543634  0.606765  1
  O  O36  1  0.315861  0.457248  0.395939  1
  O  O37  1  0.365359  0.222088  0.682798  1
  O  O38  1  0.595114  0.277912  0.856729  1
  O  O39  1  0.935676  0.874212  0.683024  1
  O  O40  1  0.942765  0.625788  0.938536  1
  O  O41  1  0.145054  0.547549  0.313151  1
  O  O42  1  0.639300  0.952451  0.402494  1
  O  O43  1  0.310491  0.958177  0.141833  1
  O  O44  1  0.399990  0.541823  0.647686  1
  O  O45  1  0.942837  0.880351  0.935277  1
  O  O46  1  0.684373  0.619649  0.937514  1
  O  O47  1  0.139711  0.456366  0.650398  1
  O  O48  1  0.604061  0.957248  0.684139  1
  O  O49  1  0.317202  0.722088  0.634641  1
  O  O50  1  0.143271  0.777912  0.404886  1
  O  O51  1  0.349602  0.956366  0.860289  1
