# generated using pymatgen
data_TiP2O7
_symmetry_space_group_name_H-M   'P 1'
_cell_length_a   7.42373119
_cell_length_b   8.01303400
_cell_length_c   9.58162773
_cell_angle_alpha   90.00000000
_cell_angle_beta   111.14164542
_cell_angle_gamma   90.00000000
_symmetry_Int_Tables_number   1
_chemical_formula_structural   TiP2O7
_chemical_formula_sum   'Ti4 P8 O28'
_cell_volume   531.61422574
_cell_formula_units_Z   4
loop_
 _symmetry_equiv_pos_site_id
 _symmetry_equiv_pos_as_xyz
  1  'x, y, z'
loop_
 _atom_site_type_symbol
 _atom_site_label
 _atom_site_symmetry_multiplicity
 _atom_site_fract_x
 _atom_site_fract_y
 _atom_site_fract_z
 _atom_site_occupancy
  Ti  Ti0  1  0.266436  0.487362  0.748625  1
  Ti  Ti1  1  0.266436  0.012638  0.248625  1
  Ti  Ti2  1  0.733564  0.987362  0.751375  1
  Ti  Ti3  1  0.733564  0.512638  0.251375  1
  P  P4  1  0.066309  0.244703  0.949227  1
  P  P5  1  0.066309  0.255296  0.449227  1
  P  P6  1  0.322665  0.791992  0.546697  1
  P  P7  1  0.677335  0.291992  0.953303  1
  P  P8  1  0.322665  0.708008  0.046697  1
  P  P9  1  0.677335  0.208008  0.453303  1
  P  P10  1  0.933691  0.744703  0.550773  1
  P  P11  1  0.933691  0.755297  0.050773  1
  O  O12  1  0.991499  0.088372  0.854199  1
  O  O13  1  0.176273  0.362769  0.884824  1
  O  O14  1  0.991499  0.411628  0.354199  1
  O  O15  1  0.117290  0.852102  0.551711  1
  O  O16  1  0.311834  0.690074  0.885195  1
  O  O17  1  0.188543  0.297949  0.611777  1
  O  O18  1  0.176273  0.137231  0.384824  1
  O  O19  1  0.350766  0.612719  0.606145  1
  O  O20  1  0.117290  0.647898  0.051711  1
  O  O21  1  0.311834  0.809926  0.385195  1
  O  O22  1  0.527439  0.410148  0.848073  1
  O  O23  1  0.188543  0.202051  0.111777  1
  O  O24  1  0.472561  0.910148  0.651927  1
  O  O25  1  0.649234  0.112719  0.893855  1
  O  O26  1  0.350766  0.887281  0.106145  1
  O  O27  1  0.527439  0.089852  0.348073  1
  O  O28  1  0.811457  0.797949  0.888223  1
  O  O29  1  0.472561  0.589852  0.151927  1
  O  O30  1  0.688166  0.190074  0.614805  1
  O  O31  1  0.882710  0.352102  0.948289  1
  O  O32  1  0.649234  0.387281  0.393855  1
  O  O33  1  0.823727  0.862769  0.615176  1
  O  O34  1  0.811457  0.702051  0.388223  1
  O  O35  1  0.688166  0.309926  0.114805  1
  O  O36  1  0.882710  0.147898  0.448289  1
  O  O37  1  0.008501  0.588372  0.645801  1
  O  O38  1  0.823727  0.637231  0.115176  1
  O  O39  1  0.008501  0.911628  0.145801  1
