# generated using pymatgen
data_Na4Mn2P(CO4)4
_symmetry_space_group_name_H-M   'P 1'
_cell_length_a   10.03339660
_cell_length_b   9.85851525
_cell_length_c   10.03339666
_cell_angle_alpha   58.91245580
_cell_angle_beta   89.15803615
_cell_angle_gamma   58.91245153
_symmetry_Int_Tables_number   1
_chemical_formula_structural   Na4Mn2P(CO4)4
_chemical_formula_sum   'Na8 Mn4 P2 C8 O32'
_cell_volume   683.55832739
_cell_formula_units_Z   2
loop_
 _symmetry_equiv_pos_site_id
 _symmetry_equiv_pos_as_xyz
  1  'x, y, z'
loop_
 _atom_site_type_symbol
 _atom_site_label
 _atom_site_symmetry_multiplicity
 _atom_site_fract_x
 _atom_site_fract_y
 _atom_site_fract_z
 _atom_site_occupancy
  Na  Na0  1  0.085027  0.829947  0.835027  1
  Na  Na1  1  0.081489  0.250000  0.831489  1
  Na  Na2  1  0.331489  0.750000  0.581489  1
  Na  Na3  1  0.335027  0.329947  0.585027  1
  Na  Na4  1  0.664973  0.670053  0.414973  1
  Na  Na5  1  0.668511  0.250000  0.418511  1
  Na  Na6  1  0.918511  0.750000  0.168511  1
  Na  Na7  1  0.914973  0.170053  0.164973  1
  Mn  Mn8  1  0.000000  0.500000  0.000000  1
  Mn  Mn9  1  0.500000  0.000000  0.500000  1
  Mn  Mn10  1  0.500000  0.500000  0.000000  1
  Mn  Mn11  1  0.500000  0.000000  0.000000  1
  P  P12  1  0.125000  0.750000  0.375000  1
  P  P13  1  0.875000  0.250000  0.625000  1
  C  C14  1  0.357979  0.930605  0.775366  1
  C  C15  1  0.275366  0.430605  0.857979  1
  C  C16  1  0.711416  0.930605  0.794029  1
  C  C17  1  0.705971  0.569395  0.788584  1
  C  C18  1  0.294029  0.430605  0.211416  1
  C  C19  1  0.288584  0.069395  0.205971  1
  C  C20  1  0.724634  0.569395  0.142021  1
  C  C21  1  0.642021  0.069395  0.224634  1
  O  O22  1  0.353657  0.786425  0.890340  1
  O  O23  1  0.059706  0.882103  0.435172  1
  O  O24  1  0.369239  0.948422  0.638185  1
  O  O25  1  0.138185  0.448422  0.869239  1
  O  O26  1  0.682340  0.948422  0.913394  1
  O  O27  1  0.296782  0.553196  0.844639  1
  O  O28  1  0.058192  0.882103  0.182725  1
  O  O29  1  0.064828  0.617897  0.440294  1
  O  O30  1  0.397836  0.946804  0.349978  1
  O  O31  1  0.586606  0.551578  0.817660  1
  O  O32  1  0.390340  0.286425  0.853657  1
  O  O33  1  0.317275  0.617897  0.441808  1
  O  O34  1  0.859919  0.786425  0.823235  1
  O  O35  1  0.676765  0.713575  0.640081  1
  O  O36  1  0.344639  0.053196  0.796782  1
  O  O37  1  0.150022  0.553196  0.102164  1
  O  O38  1  0.849978  0.446804  0.897836  1
  O  O39  1  0.655361  0.946804  0.203218  1
  O  O40  1  0.323235  0.286425  0.359919  1
  O  O41  1  0.140081  0.213575  0.176765  1
  O  O42  1  0.682725  0.382103  0.558192  1
  O  O43  1  0.609660  0.713575  0.146343  1
  O  O44  1  0.413394  0.448422  0.182340  1
  O  O45  1  0.602164  0.053196  0.650022  1
  O  O46  1  0.935172  0.382103  0.559706  1
  O  O47  1  0.941808  0.117897  0.817275  1
  O  O48  1  0.703218  0.446804  0.155361  1
  O  O49  1  0.317660  0.051578  0.086606  1
  O  O50  1  0.861815  0.551578  0.130761  1
  O  O51  1  0.630761  0.051578  0.361815  1
  O  O52  1  0.940294  0.117897  0.564828  1
  O  O53  1  0.646343  0.213575  0.109660  1
