# generated using pymatgen
data_Na3Bi(P2O7)2
_symmetry_space_group_name_H-M   'P 1'
_cell_length_a   9.63007756
_cell_length_b   9.70647338
_cell_length_c   7.40107608
_cell_angle_alpha   77.32728758
_cell_angle_beta   110.27412178
_cell_angle_gamma   99.59915542
_symmetry_Int_Tables_number   1
_chemical_formula_structural   Na3Bi(P2O7)2
_chemical_formula_sum   'Na6 Bi2 P8 O28'
_cell_volume   630.01986917
_cell_formula_units_Z   2
loop_
 _symmetry_equiv_pos_site_id
 _symmetry_equiv_pos_as_xyz
  1  'x, y, z'
loop_
 _atom_site_type_symbol
 _atom_site_label
 _atom_site_symmetry_multiplicity
 _atom_site_fract_x
 _atom_site_fract_y
 _atom_site_fract_z
 _atom_site_occupancy
  Na  Na0  1  0.148808  0.727325  0.645537  1
  Na  Na1  1  0.499544  0.838027  0.948035  1
  Na  Na2  1  0.459523  0.667787  0.557735  1
  Na  Na3  1  0.540477  0.332213  0.442265  1
  Na  Na4  1  0.500456  0.161973  0.051965  1
  Na  Na5  1  0.851192  0.272675  0.354463  1
  Bi  Bi6  1  0.122341  0.217903  0.118993  1
  Bi  Bi7  1  0.877659  0.782097  0.881007  1
  P  P8  1  0.135747  0.025651  0.815583  1
  P  P9  1  0.107869  0.549259  0.271169  1
  P  P10  1  0.333509  0.055794  0.585270  1
  P  P11  1  0.341930  0.547180  0.097252  1
  P  P12  1  0.658070  0.452820  0.902748  1
  P  P13  1  0.666491  0.944206  0.414730  1
  P  P14  1  0.892131  0.450741  0.728831  1
  P  P15  1  0.864253  0.974349  0.184417  1
  O  O16  1  0.035376  0.376380  0.819111  1
  O  O17  1  0.164249  0.869850  0.877933  1
  O  O18  1  0.028554  0.955775  0.231464  1
  O  O19  1  0.078511  0.385663  0.311051  1
  O  O20  1  0.237834  0.122227  0.963422  1
  O  O21  1  0.208672  0.603335  0.456052  1
  O  O22  1  0.180812  0.085645  0.616017  1
  O  O23  1  0.356377  0.627339  0.904612  1
  O  O24  1  0.334944  0.897812  0.590557  1
  O  O25  1  0.186332  0.588912  0.103214  1
  O  O26  1  0.331132  0.152933  0.391195  1
  O  O27  1  0.324472  0.383387  0.117264  1
  O  O28  1  0.467802  0.093935  0.758739  1
  O  O29  1  0.532299  0.414422  0.721515  1
  O  O30  1  0.467701  0.585578  0.278485  1
  O  O31  1  0.532198  0.906065  0.241261  1
  O  O32  1  0.675528  0.616613  0.882736  1
  O  O33  1  0.668868  0.847067  0.608805  1
  O  O34  1  0.813668  0.411088  0.896786  1
  O  O35  1  0.665056  0.102188  0.409443  1
  O  O36  1  0.643623  0.372661  0.095388  1
  O  O37  1  0.819188  0.914355  0.383983  1
  O  O38  1  0.791328  0.396665  0.543948  1
  O  O39  1  0.762166  0.877773  0.036578  1
  O  O40  1  0.921489  0.614337  0.688949  1
  O  O41  1  0.971446  0.044225  0.768536  1
  O  O42  1  0.835751  0.130150  0.122067  1
  O  O43  1  0.964624  0.623620  0.180889  1
