# generated using pymatgen
data_Na2Bi2C4SO16
_symmetry_space_group_name_H-M   'P 1'
_cell_length_a   10.54228452
_cell_length_b   10.40156702
_cell_length_c   10.40156724
_cell_angle_alpha   88.41399618
_cell_angle_beta   61.33601546
_cell_angle_gamma   118.66398556
_symmetry_Int_Tables_number   1
_chemical_formula_structural   Na2Bi2C4SO16
_chemical_formula_sum   'Na4 Bi4 C8 S2 O32'
_cell_volume   827.48501317
_cell_formula_units_Z   2
loop_
 _symmetry_equiv_pos_site_id
 _symmetry_equiv_pos_as_xyz
  1  'x, y, z'
loop_
 _atom_site_type_symbol
 _atom_site_label
 _atom_site_symmetry_multiplicity
 _atom_site_fract_x
 _atom_site_fract_y
 _atom_site_fract_z
 _atom_site_occupancy
  Na  Na0  1  0.250000  0.914650  0.835350  1
  Na  Na1  1  0.250000  0.335350  0.414650  1
  Na  Na2  1  0.750000  0.664650  0.585350  1
  Na  Na3  1  0.750000  0.085350  0.164650  1
  Bi  Bi4  1  0.000000  0.500000  0.000000  1
  Bi  Bi5  1  0.000000  0.500000  0.500000  1
  Bi  Bi6  1  0.500000  0.500000  0.000000  1
  Bi  Bi7  1  0.500000  0.000000  0.000000  1
  C  C8  1  0.070785  0.724897  0.213013  1
  C  C9  1  0.070785  0.345888  0.216202  1
  C  C10  1  0.429215  0.713013  0.224897  1
  C  C11  1  0.429215  0.716202  0.845888  1
  C  C12  1  0.570785  0.283798  0.154112  1
  C  C13  1  0.570785  0.286987  0.775103  1
  C  C14  1  0.929215  0.654112  0.783798  1
  C  C15  1  0.929215  0.275103  0.786987  1
  S  S16  1  0.250000  0.125000  0.625000  1
  S  S17  1  0.750000  0.875000  0.375000  1
  O  O18  1  0.062573  0.711375  0.093007  1
  O  O19  1  0.200084  0.847590  0.200128  1
  O  O20  1  0.062573  0.351198  0.344420  1
  O  O21  1  0.200084  0.352495  0.099788  1
  O  O22  1  0.052797  0.667412  0.794806  1
  O  O23  1  0.299916  0.700128  0.347590  1
  O  O24  1  0.052797  0.385385  0.652396  1
  O  O25  1  0.552797  0.847604  0.114615  1
  O  O26  1  0.437427  0.593007  0.211375  1
  O  O27  1  0.137886  0.073063  0.564034  1
  O  O28  1  0.447203  0.294806  0.167412  1
  O  O29  1  0.637886  0.935966  0.426937  1
  O  O30  1  0.299916  0.599788  0.852495  1
  O  O31  1  0.437427  0.844420  0.851198  1
  O  O32  1  0.137886  0.064822  0.798080  1
  O  O33  1  0.362114  0.298080  0.564822  1
  O  O34  1  0.637886  0.701920  0.435178  1
  O  O35  1  0.862114  0.935178  0.201920  1
  O  O36  1  0.562573  0.155580  0.148802  1
  O  O37  1  0.700084  0.400212  0.147505  1
  O  O38  1  0.362114  0.064034  0.573063  1
  O  O39  1  0.552797  0.705194  0.832588  1
  O  O40  1  0.862114  0.926937  0.435966  1
  O  O41  1  0.562573  0.406993  0.788625  1
  O  O42  1  0.447203  0.152396  0.885385  1
  O  O43  1  0.947203  0.614615  0.347604  1
  O  O44  1  0.700084  0.299872  0.652410  1
  O  O45  1  0.947203  0.332588  0.205194  1
  O  O46  1  0.799916  0.647505  0.900212  1
  O  O47  1  0.937427  0.648802  0.655580  1
  O  O48  1  0.799916  0.152410  0.799872  1
  O  O49  1  0.937427  0.288625  0.906993  1
