# generated using pymatgen
data_Na2Fe2C4SO16
_symmetry_space_group_name_H-M   'P 1'
_cell_length_a   9.90638660
_cell_length_b   9.85396831
_cell_length_c   9.85396813
_cell_angle_alpha   90.74915442
_cell_angle_beta   59.74447979
_cell_angle_gamma   120.25551955
_symmetry_Int_Tables_number   1
_chemical_formula_structural   Na2Fe2C4SO16
_chemical_formula_sum   'Na4 Fe4 C8 S2 O32'
_cell_volume   679.30926035
_cell_formula_units_Z   2
loop_
 _symmetry_equiv_pos_site_id
 _symmetry_equiv_pos_as_xyz
  1  'x, y, z'
loop_
 _atom_site_type_symbol
 _atom_site_label
 _atom_site_symmetry_multiplicity
 _atom_site_fract_x
 _atom_site_fract_y
 _atom_site_fract_z
 _atom_site_occupancy
  Na  Na0  1  0.250000  0.914125  0.835875  1
  Na  Na1  1  0.250000  0.335875  0.414125  1
  Na  Na2  1  0.750000  0.664125  0.585875  1
  Na  Na3  1  0.750000  0.085875  0.164125  1
  Fe  Fe4  1  0.000000  0.500000  0.000000  1
  Fe  Fe5  1  0.000000  0.500000  0.500000  1
  Fe  Fe6  1  0.500000  0.500000  0.000000  1
  Fe  Fe7  1  0.500000  0.000000  0.000000  1
  C  C8  1  0.079558  0.716785  0.211168  1
  C  C9  1  0.079558  0.362772  0.209274  1
  C  C10  1  0.420442  0.711169  0.216785  1
  C  C11  1  0.420442  0.709274  0.862772  1
  C  C12  1  0.579558  0.290726  0.137228  1
  C  C13  1  0.579558  0.288832  0.783215  1
  C  C14  1  0.920442  0.637228  0.790726  1
  C  C15  1  0.920442  0.283215  0.788831  1
  S  S16  1  0.250000  0.125000  0.625000  1
  S  S17  1  0.750000  0.875000  0.375000  1
  O  O18  1  0.055630  0.689239  0.093020  1
  O  O19  1  0.223943  0.858364  0.183496  1
  O  O20  1  0.055630  0.366391  0.351350  1
  O  O21  1  0.223943  0.365578  0.092561  1
  O  O22  1  0.041696  0.647718  0.814782  1
  O  O23  1  0.276057  0.683496  0.358364  1
  O  O24  1  0.041696  0.393978  0.643523  1
  O  O25  1  0.541696  0.856477  0.106022  1
  O  O26  1  0.444370  0.593020  0.189239  1
  O  O27  1  0.126445  0.062120  0.564118  1
  O  O28  1  0.458304  0.314782  0.147718  1
  O  O29  1  0.626445  0.935882  0.437880  1
  O  O30  1  0.276057  0.592561  0.865578  1
  O  O31  1  0.444370  0.851350  0.866391  1
  O  O32  1  0.126445  0.064325  0.809437  1
  O  O33  1  0.373555  0.309437  0.564325  1
  O  O34  1  0.626445  0.690563  0.435675  1
  O  O35  1  0.873555  0.935675  0.190563  1
  O  O36  1  0.555630  0.148650  0.133609  1
  O  O37  1  0.723943  0.407439  0.134422  1
  O  O38  1  0.373555  0.064118  0.562120  1
  O  O39  1  0.541696  0.685218  0.852282  1
  O  O40  1  0.873555  0.937880  0.435882  1
  O  O41  1  0.555630  0.406980  0.810761  1
  O  O42  1  0.458304  0.143523  0.893977  1
  O  O43  1  0.958304  0.606023  0.356477  1
  O  O44  1  0.723943  0.316504  0.641636  1
  O  O45  1  0.958304  0.352282  0.185218  1
  O  O46  1  0.776057  0.634422  0.907439  1
  O  O47  1  0.944370  0.633609  0.648650  1
  O  O48  1  0.776057  0.141636  0.816504  1
  O  O49  1  0.944370  0.310761  0.906980  1
