# generated using pymatgen
data_Na2NiAsCO7
_symmetry_space_group_name_H-M   'P 1'
_cell_length_a   9.02858065
_cell_length_b   6.62699504
_cell_length_c   5.30179608
_cell_angle_alpha   90.00000000
_cell_angle_beta   87.14586088
_cell_angle_gamma   90.00000000
_symmetry_Int_Tables_number   1
_chemical_formula_structural   Na2NiAsCO7
_chemical_formula_sum   'Na4 Ni2 As2 C2 O14'
_cell_volume   316.82546776
_cell_formula_units_Z   2
loop_
 _symmetry_equiv_pos_site_id
 _symmetry_equiv_pos_as_xyz
  1  'x, y, z'
loop_
 _atom_site_type_symbol
 _atom_site_label
 _atom_site_symmetry_multiplicity
 _atom_site_fract_x
 _atom_site_fract_y
 _atom_site_fract_z
 _atom_site_occupancy
  Na  Na0  1  0.231444  0.496707  0.232984  1
  Na  Na1  1  0.231444  0.003293  0.232984  1
  Na  Na2  1  0.768556  0.503293  0.767016  1
  Na  Na3  1  0.768556  0.996707  0.767016  1
  Ni  Ni4  1  0.343567  0.750000  0.784284  1
  Ni  Ni5  1  0.656433  0.250000  0.215716  1
  As  As6  1  0.429005  0.250000  0.706348  1
  As  As7  1  0.570995  0.750000  0.293652  1
  C  C8  1  0.077515  0.750000  0.720310  1
  C  C9  1  0.922485  0.250000  0.279690  1
  O  O10  1  0.061118  0.250000  0.286674  1
  O  O11  1  0.146158  0.750000  0.935983  1
  O  O12  1  0.170517  0.750000  0.524498  1
  O  O13  1  0.317412  0.047621  0.793213  1
  O  O14  1  0.317412  0.452379  0.793213  1
  O  O15  1  0.404594  0.750000  0.152672  1
  O  O16  1  0.460661  0.250000  0.375053  1
  O  O17  1  0.539339  0.750000  0.624947  1
  O  O18  1  0.595406  0.250000  0.847328  1
  O  O19  1  0.682588  0.547621  0.206787  1
  O  O20  1  0.682588  0.952379  0.206787  1
  O  O21  1  0.829483  0.250000  0.475502  1
  O  O22  1  0.853842  0.250000  0.064017  1
  O  O23  1  0.938882  0.750000  0.713326  1
