# generated using pymatgen
data_NaCuP2O7
_symmetry_space_group_name_H-M   'P 1'
_cell_length_a   8.83489204
_cell_length_b   13.62789100
_cell_length_c   5.09395054
_cell_angle_alpha   90.00000000
_cell_angle_beta   92.59052591
_cell_angle_gamma   90.00000000
_symmetry_Int_Tables_number   1
_chemical_formula_structural   NaCuP2O7
_chemical_formula_sum   'Na4 Cu4 P8 O28'
_cell_volume   612.68968794
_cell_formula_units_Z   4
loop_
 _symmetry_equiv_pos_site_id
 _symmetry_equiv_pos_as_xyz
  1  'x, y, z'
loop_
 _atom_site_type_symbol
 _atom_site_label
 _atom_site_symmetry_multiplicity
 _atom_site_fract_x
 _atom_site_fract_y
 _atom_site_fract_z
 _atom_site_occupancy
  Na  Na0  1  0.133079  0.883683  0.216483  1
  Na  Na1  1  0.366921  0.383683  0.283517  1
  Na  Na2  1  0.633079  0.616317  0.716483  1
  Na  Na3  1  0.866921  0.116317  0.783517  1
  Cu  Cu4  1  0.247687  0.663268  0.297743  1
  Cu  Cu5  1  0.252313  0.163268  0.202257  1
  Cu  Cu6  1  0.747687  0.836732  0.797743  1
  Cu  Cu7  1  0.752313  0.336732  0.702257  1
  P  P8  1  0.041872  0.681354  0.772217  1
  P  P9  1  0.230010  0.036474  0.706220  1
  P  P10  1  0.269990  0.536474  0.793780  1
  P  P11  1  0.458128  0.181354  0.727783  1
  P  P12  1  0.541872  0.818646  0.272217  1
  P  P13  1  0.730010  0.463526  0.206220  1
  P  P14  1  0.769990  0.963526  0.293780  1
  P  P15  1  0.958128  0.318646  0.227783  1
  O  O16  1  0.089896  0.566239  0.762890  1
  O  O17  1  0.092964  0.728311  0.514968  1
  O  O18  1  0.133724  0.726570  0.006499  1
  O  O19  1  0.126844  0.311200  0.199929  1
  O  O20  1  0.146937  0.107962  0.889512  1
  O  O21  1  0.180325  0.053127  0.415681  1
  O  O22  1  0.211875  0.931682  0.793377  1
  O  O23  1  0.288125  0.431682  0.706623  1
  O  O24  1  0.319675  0.553127  0.084319  1
  O  O25  1  0.353063  0.607962  0.610488  1
  O  O26  1  0.366276  0.226570  0.493501  1
  O  O27  1  0.373156  0.811200  0.300071  1
  O  O28  1  0.407036  0.228311  0.985032  1
  O  O29  1  0.410104  0.066239  0.737110  1
  O  O30  1  0.589896  0.933761  0.262890  1
  O  O31  1  0.592964  0.771689  0.014968  1
  O  O32  1  0.626844  0.188800  0.699929  1
  O  O33  1  0.633724  0.773430  0.506499  1
  O  O34  1  0.646937  0.392038  0.389512  1
  O  O35  1  0.680325  0.446873  0.915681  1
  O  O36  1  0.711875  0.568318  0.293377  1
  O  O37  1  0.788125  0.068318  0.206623  1
  O  O38  1  0.819675  0.946873  0.584319  1
  O  O39  1  0.853063  0.892038  0.110488  1
  O  O40  1  0.873156  0.688800  0.800071  1
  O  O41  1  0.866276  0.273430  0.993501  1
  O  O42  1  0.907036  0.271689  0.485032  1
  O  O43  1  0.910104  0.433761  0.237110  1
