# generated using pymatgen
data_Na4B4Sb2SO16
_symmetry_space_group_name_H-M   'P 1'
_cell_length_a   9.99972297
_cell_length_b   9.83119156
_cell_length_c   9.99972363
_cell_angle_alpha   60.77268380
_cell_angle_beta   92.28710036
_cell_angle_gamma   60.77268095
_symmetry_Int_Tables_number   1
_chemical_formula_structural   Na4B4Sb2SO16
_chemical_formula_sum   'Na8 B8 Sb4 S2 O32'
_cell_volume   696.90367857
_cell_formula_units_Z   2
loop_
 _symmetry_equiv_pos_site_id
 _symmetry_equiv_pos_as_xyz
  1  'x, y, z'
loop_
 _atom_site_type_symbol
 _atom_site_label
 _atom_site_symmetry_multiplicity
 _atom_site_fract_x
 _atom_site_fract_y
 _atom_site_fract_z
 _atom_site_occupancy
  Na  Na0  1  0.081109  0.837782  0.831109  1
  Na  Na1  1  0.081580  0.250000  0.831580  1
  Na  Na2  1  0.331580  0.750000  0.581580  1
  Na  Na3  1  0.331109  0.337782  0.581109  1
  Na  Na4  1  0.668891  0.662218  0.418891  1
  Na  Na5  1  0.668420  0.250000  0.418420  1
  Na  Na6  1  0.918420  0.750000  0.168420  1
  Na  Na7  1  0.918891  0.162218  0.168891  1
  B  B8  1  0.361604  0.927505  0.780295  1
  B  B9  1  0.280295  0.427505  0.861604  1
  B  B10  1  0.710891  0.927505  0.792199  1
  B  B11  1  0.707801  0.572495  0.789109  1
  B  B12  1  0.292199  0.427505  0.210891  1
  B  B13  1  0.289109  0.072495  0.207801  1
  B  B14  1  0.719705  0.572495  0.138396  1
  B  B15  1  0.638396  0.072495  0.219705  1
  Sb  Sb16  1  0.000000  0.500000  0.000000  1
  Sb  Sb17  1  0.500000  0.000000  0.500000  1
  Sb  Sb18  1  0.500000  0.500000  0.000000  1
  Sb  Sb19  1  0.500000  0.000000  0.000000  1
  S  S20  1  0.125000  0.750000  0.375000  1
  S  S21  1  0.875000  0.250000  0.625000  1
  O  O22  1  0.356732  0.780528  0.899972  1
  O  O23  1  0.066988  0.875760  0.433618  1
  O  O24  1  0.364458  0.951331  0.633047  1
  O  O25  1  0.133047  0.451331  0.864458  1
  O  O26  1  0.684210  0.951331  0.915622  1
  O  O27  1  0.307073  0.556161  0.856024  1
  O  O28  1  0.057252  0.875760  0.190622  1
  O  O29  1  0.066382  0.624240  0.433012  1
  O  O30  1  0.412185  0.943839  0.363233  1
  O  O31  1  0.584378  0.548669  0.815790  1
  O  O32  1  0.399972  0.280528  0.856732  1
  O  O33  1  0.309378  0.624240  0.442748  1
  O  O34  1  0.862741  0.780528  0.819500  1
  O  O35  1  0.680500  0.719472  0.637259  1
  O  O36  1  0.356024  0.056161  0.807073  1
  O  O37  1  0.136767  0.556161  0.087815  1
  O  O38  1  0.863233  0.443839  0.912185  1
  O  O39  1  0.643976  0.943839  0.192927  1
  O  O40  1  0.319500  0.280528  0.362741  1
  O  O41  1  0.137259  0.219472  0.180500  1
  O  O42  1  0.690622  0.375760  0.557252  1
  O  O43  1  0.600028  0.719472  0.143268  1
  O  O44  1  0.415622  0.451331  0.184210  1
  O  O45  1  0.587815  0.056161  0.636767  1
  O  O46  1  0.933618  0.375760  0.566988  1
  O  O47  1  0.942748  0.124240  0.809378  1
  O  O48  1  0.692927  0.443839  0.143976  1
  O  O49  1  0.315790  0.048669  0.084378  1
  O  O50  1  0.866953  0.548669  0.135542  1
  O  O51  1  0.635542  0.048669  0.366953  1
  O  O52  1  0.933012  0.124240  0.566382  1
  O  O53  1  0.643268  0.219472  0.100028  1
