# generated using pymatgen
data_Fe3P4O15
_symmetry_space_group_name_H-M   'P 1'
_cell_length_a   17.34234737
_cell_length_b   6.33675564
_cell_length_c   10.80240155
_cell_angle_alpha   90.00000000
_cell_angle_beta   90.00000000
_cell_angle_gamma   90.00000000
_symmetry_Int_Tables_number   1
_chemical_formula_structural   Fe3P4O15
_chemical_formula_sum   'Fe12 P16 O60'
_cell_volume   1187.12146554
_cell_formula_units_Z   4
loop_
 _symmetry_equiv_pos_site_id
 _symmetry_equiv_pos_as_xyz
  1  'x, y, z'
loop_
 _atom_site_type_symbol
 _atom_site_label
 _atom_site_symmetry_multiplicity
 _atom_site_fract_x
 _atom_site_fract_y
 _atom_site_fract_z
 _atom_site_occupancy
  Fe  Fe0  1  0.377228  0.087864  0.990600  1
  Fe  Fe1  1  0.122772  0.587864  0.490600  1
  Fe  Fe2  1  0.243833  0.309475  0.741546  1
  Fe  Fe3  1  0.622772  0.587864  0.009400  1
  Fe  Fe4  1  0.877228  0.087864  0.509400  1
  Fe  Fe5  1  0.659537  0.602774  0.492964  1
  Fe  Fe6  1  0.159537  0.602774  0.007036  1
  Fe  Fe7  1  0.340463  0.102774  0.507036  1
  Fe  Fe8  1  0.743833  0.309475  0.758454  1
  Fe  Fe9  1  0.756167  0.809475  0.258454  1
  Fe  Fe10  1  0.840463  0.102774  0.992964  1
  Fe  Fe11  1  0.256167  0.809475  0.241546  1
  P  P12  1  0.821820  0.585728  0.524989  1
  P  P13  1  0.948594  0.139515  0.774938  1
  P  P14  1  0.428594  0.963808  0.264683  1
  P  P15  1  0.709005  0.097572  0.495471  1
  P  P16  1  0.051406  0.639515  0.225062  1
  P  P17  1  0.321820  0.585728  0.975011  1
  P  P18  1  0.790995  0.597572  0.995471  1
  P  P19  1  0.071406  0.463808  0.764683  1
  P  P20  1  0.678180  0.085728  0.024989  1
  P  P21  1  0.448594  0.139515  0.725062  1
  P  P22  1  0.551406  0.639515  0.274938  1
  P  P23  1  0.571406  0.463808  0.735317  1
  P  P24  1  0.209005  0.097572  0.004529  1
  P  P25  1  0.928594  0.963808  0.235317  1
  P  P26  1  0.290995  0.597572  0.504529  1
  P  P27  1  0.178180  0.085728  0.475011  1
  O  O28  1  0.765205  0.612976  0.409962  1
  O  O29  1  0.234795  0.112976  0.590038  1
  O  O30  1  0.488823  0.370237  0.706410  1
  O  O31  1  0.869559  0.784893  0.542801  1
  O  O32  1  0.637616  0.688023  0.310378  1
  O  O33  1  0.264274  0.123643  0.889075  1
  O  O34  1  0.564066  0.580665  0.858728  1
  O  O35  1  0.046510  0.596235  0.365899  1
  O  O36  1  0.738887  0.051111  0.131365  1
  O  O37  1  0.661379  0.298706  0.472077  1
  O  O38  1  0.238887  0.051111  0.368635  1
  O  O39  1  0.764274  0.123643  0.610925  1
  O  O40  1  0.511177  0.870237  0.293590  1
  O  O41  1  0.369559  0.784893  0.957199  1
  O  O42  1  0.485301  0.983399  0.642223  1
  O  O43  1  0.910980  0.108547  0.125211  1
  O  O44  1  0.626029  0.894516  0.006890  1
  O  O45  1  0.838621  0.798706  0.972077  1
  O  O46  1  0.761113  0.551111  0.631365  1
  O  O47  1  0.265205  0.612976  0.090038  1
  O  O48  1  0.130441  0.284893  0.457199  1
  O  O49  1  0.514699  0.483399  0.357777  1
  O  O50  1  0.133627  0.289098  0.756494  1
  O  O51  1  0.873971  0.394516  0.506890  1
  O  O52  1  0.155802  0.908236  0.984817  1
  O  O53  1  0.231582  0.550923  0.610825  1
  O  O54  1  0.630441  0.284893  0.042801  1
  O  O55  1  0.014699  0.483399  0.142223  1
  O  O56  1  0.768418  0.050923  0.389175  1
  O  O57  1  0.338621  0.798706  0.527923  1
  O  O58  1  0.935934  0.080665  0.358728  1
  O  O59  1  0.362384  0.188023  0.689622  1
  O  O60  1  0.589020  0.608548  0.625211  1
  O  O61  1  0.064066  0.580665  0.641272  1
  O  O62  1  0.844198  0.408236  0.015183  1
  O  O63  1  0.268418  0.050923  0.110825  1
  O  O64  1  0.435934  0.080665  0.141272  1
  O  O65  1  0.988823  0.370237  0.793590  1
  O  O66  1  0.410980  0.108547  0.374789  1
  O  O67  1  0.734795  0.112976  0.909962  1
  O  O68  1  0.953490  0.096235  0.634101  1
  O  O69  1  0.089020  0.608548  0.874789  1
  O  O70  1  0.735726  0.623643  0.110925  1
  O  O71  1  0.373971  0.394516  0.993110  1
  O  O72  1  0.985301  0.983399  0.857777  1
  O  O73  1  0.633627  0.289098  0.743506  1
  O  O74  1  0.546510  0.596235  0.134101  1
  O  O75  1  0.261113  0.551111  0.868635  1
  O  O76  1  0.137616  0.688023  0.189622  1
  O  O77  1  0.655802  0.908236  0.515183  1
  O  O78  1  0.731582  0.550923  0.889175  1
  O  O79  1  0.126029  0.894516  0.493110  1
  O  O80  1  0.161379  0.298706  0.027923  1
  O  O81  1  0.235726  0.623643  0.389075  1
  O  O82  1  0.862384  0.188023  0.810378  1
  O  O83  1  0.344198  0.408236  0.484817  1
  O  O84  1  0.011177  0.870237  0.206410  1
  O  O85  1  0.453490  0.096235  0.865899  1
  O  O86  1  0.366373  0.789098  0.256494  1
  O  O87  1  0.866373  0.789098  0.243506  1
