# generated using pymatgen
data_Li5Fe2P2(CO7)2
_symmetry_space_group_name_H-M   'P 1'
_cell_length_a   8.46277559
_cell_length_b   10.18572418
_cell_length_c   6.46958673
_cell_angle_alpha   90.00000000
_cell_angle_beta   90.00000000
_cell_angle_gamma   84.42861236
_symmetry_Int_Tables_number   1
_chemical_formula_structural   Li5Fe2P2(CO7)2
_chemical_formula_sum   'Li10 Fe4 P4 C4 O28'
_cell_volume   555.04067465
_cell_formula_units_Z   2
loop_
 _symmetry_equiv_pos_site_id
 _symmetry_equiv_pos_as_xyz
  1  'x, y, z'
loop_
 _atom_site_type_symbol
 _atom_site_label
 _atom_site_symmetry_multiplicity
 _atom_site_fract_x
 _atom_site_fract_y
 _atom_site_fract_z
 _atom_site_occupancy
  Li  Li0  1  0.103597  0.389739  0.244393  1
  Li  Li1  1  0.103597  0.889739  0.255607  1
  Li  Li2  1  0.288844  0.116651  0.059527  1
  Li  Li3  1  0.288844  0.616651  0.440473  1
  Li  Li4  1  0.739426  0.371092  0.498048  1
  Li  Li5  1  0.734801  0.368592  0.998421  1
  Li  Li6  1  0.734801  0.868592  0.501579  1
  Li  Li7  1  0.739426  0.871092  0.001952  1
  Li  Li8  1  0.902121  0.119250  0.750768  1
  Li  Li9  1  0.902121  0.619250  0.749232  1
  Fe  Fe10  1  0.326693  0.397508  0.751189  1
  Fe  Fe11  1  0.326693  0.897508  0.748811  1
  Fe  Fe12  1  0.665199  0.106754  0.256078  1
  Fe  Fe13  1  0.665199  0.606754  0.243922  1
  P  P14  1  0.414804  0.359547  0.245034  1
  P  P15  1  0.414804  0.859547  0.254966  1
  P  P16  1  0.581341  0.133525  0.759544  1
  P  P17  1  0.581341  0.633525  0.740456  1
  C  C18  1  0.035501  0.352281  0.750002  1
  C  C19  1  0.035501  0.852281  0.749998  1
  C  C20  1  0.961018  0.157355  0.241656  1
  C  C21  1  0.961018  0.657355  0.258344  1
  O  O22  1  0.067376  0.474504  0.740144  1
  O  O23  1  0.097546  0.193424  0.208868  1
  O  O24  1  0.067376  0.974504  0.759856  1
  O  O25  1  0.154521  0.262639  0.757875  1
  O  O26  1  0.097546  0.693424  0.291132  1
  O  O27  1  0.154521  0.762639  0.742125  1
  O  O28  1  0.310971  0.407684  0.057733  1
  O  O29  1  0.306310  0.406706  0.430213  1
  O  O30  1  0.306310  0.906706  0.069787  1
  O  O31  1  0.310971  0.907684  0.442267  1
  O  O32  1  0.425538  0.071293  0.788365  1
  O  O33  1  0.449322  0.206589  0.237092  1
  O  O34  1  0.425538  0.571293  0.711635  1
  O  O35  1  0.449322  0.706589  0.262908  1
  O  O36  1  0.550395  0.286889  0.747836  1
  O  O37  1  0.578068  0.417525  0.253196  1
  O  O38  1  0.550395  0.786889  0.752164  1
  O  O39  1  0.578068  0.917525  0.246804  1
  O  O40  1  0.680452  0.081781  0.566517  1
  O  O41  1  0.699182  0.093924  0.942035  1
  O  O42  1  0.699182  0.593924  0.557965  1
  O  O43  1  0.680452  0.581781  0.933483  1
  O  O44  1  0.836626  0.247224  0.262076  1
  O  O45  1  0.890061  0.320219  0.750981  1
  O  O46  1  0.836626  0.747224  0.237924  1
  O  O47  1  0.929170  0.034690  0.253857  1
  O  O48  1  0.890061  0.820219  0.749019  1
  O  O49  1  0.929170  0.534690  0.246143  1
