# generated using pymatgen
data_NaSnAsCO7
_symmetry_space_group_name_H-M   'P 1'
_cell_length_a   9.52283059
_cell_length_b   6.83062500
_cell_length_c   5.42879918
_cell_angle_alpha   90.00000000
_cell_angle_beta   87.11733529
_cell_angle_gamma   90.00000000
_symmetry_Int_Tables_number   1
_chemical_formula_structural   NaSnAsCO7
_chemical_formula_sum   'Na2 Sn2 As2 C2 O14'
_cell_volume   352.67963428
_cell_formula_units_Z   2
loop_
 _symmetry_equiv_pos_site_id
 _symmetry_equiv_pos_as_xyz
  1  'x, y, z'
loop_
 _atom_site_type_symbol
 _atom_site_label
 _atom_site_symmetry_multiplicity
 _atom_site_fract_x
 _atom_site_fract_y
 _atom_site_fract_z
 _atom_site_occupancy
  Na  Na0  1  0.188378  0.498731  0.224667  1
  Na  Na1  1  0.811622  0.998731  0.775333  1
  Sn  Sn2  1  0.340139  0.759767  0.787875  1
  Sn  Sn3  1  0.659861  0.259767  0.212125  1
  As  As4  1  0.432751  0.253375  0.723452  1
  As  As5  1  0.567249  0.753375  0.276548  1
  C  C6  1  0.077629  0.740332  0.720805  1
  C  C7  1  0.922371  0.240332  0.279195  1
  O  O8  1  0.048689  0.248622  0.315202  1
  O  O9  1  0.132897  0.743795  0.943895  1
  O  O10  1  0.179657  0.730680  0.537659  1
  O  O11  1  0.325092  0.060462  0.798722  1
  O  O12  1  0.335036  0.450633  0.822752  1
  O  O13  1  0.406386  0.741956  0.146429  1
  O  O14  1  0.467724  0.269497  0.406339  1
  O  O15  1  0.532276  0.769497  0.593661  1
  O  O16  1  0.593614  0.241956  0.853571  1
  O  O17  1  0.664964  0.950633  0.177248  1
  O  O18  1  0.674908  0.560462  0.201278  1
  O  O19  1  0.820343  0.230680  0.462340  1
  O  O20  1  0.867103  0.243795  0.056105  1
  O  O21  1  0.951311  0.748622  0.684798  1
