# generated using pymatgen
data_TiP2O7
_symmetry_space_group_name_H-M   'P 1'
_cell_length_a   8.81666888
_cell_length_b   5.20997800
_cell_length_c   12.22715833
_cell_angle_alpha   90.00000000
_cell_angle_beta   76.31194496
_cell_angle_gamma   90.00000000
_symmetry_Int_Tables_number   1
_chemical_formula_structural   TiP2O7
_chemical_formula_sum   'Ti4 P8 O28'
_cell_volume   545.69852542
_cell_formula_units_Z   4
loop_
 _symmetry_equiv_pos_site_id
 _symmetry_equiv_pos_as_xyz
  1  'x, y, z'
loop_
 _atom_site_type_symbol
 _atom_site_label
 _atom_site_symmetry_multiplicity
 _atom_site_fract_x
 _atom_site_fract_y
 _atom_site_fract_z
 _atom_site_occupancy
  Ti  Ti0  1  0.236434  0.239770  0.037030  1
  Ti  Ti1  1  0.263566  0.739770  0.462970  1
  Ti  Ti2  1  0.736434  0.260230  0.537030  1
  Ti  Ti3  1  0.763566  0.760230  0.962970  1
  P  P4  1  0.018694  0.755765  0.139620  1
  P  P5  1  0.071651  0.227333  0.613338  1
  P  P6  1  0.481306  0.255765  0.360380  1
  P  P7  1  0.571651  0.272667  0.113338  1
  P  P8  1  0.428349  0.727333  0.886662  1
  P  P9  1  0.518694  0.744235  0.639620  1
  P  P10  1  0.928349  0.772667  0.386662  1
  P  P11  1  0.981306  0.244235  0.860380  1
  O  O12  1  0.095549  0.018228  0.143737  1
  O  O13  1  0.137326  0.536358  0.121674  1
  O  O14  1  0.103623  0.733133  0.377534  1
  O  O15  1  0.122674  0.954088  0.578952  1
  O  O16  1  0.097496  0.279009  0.737978  1
  O  O17  1  0.174888  0.426399  0.540996  1
  O  O18  1  0.085412  0.255651  0.942822  1
  O  O19  1  0.396377  0.233133  0.122466  1
  O  O20  1  0.362674  0.036358  0.378326  1
  O  O21  1  0.404451  0.518228  0.356263  1
  O  O22  1  0.414588  0.755651  0.557178  1
  O  O23  1  0.622674  0.545912  0.078952  1
  O  O24  1  0.325112  0.926399  0.959004  1
  O  O25  1  0.402504  0.779009  0.762022  1
  O  O26  1  0.597496  0.220991  0.237978  1
  O  O27  1  0.674888  0.073601  0.040996  1
  O  O28  1  0.377326  0.454088  0.921048  1
  O  O29  1  0.585412  0.244349  0.442822  1
  O  O30  1  0.595549  0.481772  0.643737  1
  O  O31  1  0.637326  0.963642  0.621674  1
  O  O32  1  0.603623  0.766867  0.877534  1
  O  O33  1  0.914588  0.744349  0.057178  1
  O  O34  1  0.825112  0.573601  0.459004  1
  O  O35  1  0.902504  0.720991  0.262022  1
  O  O36  1  0.877326  0.045912  0.421048  1
  O  O37  1  0.896377  0.266867  0.622466  1
  O  O38  1  0.862674  0.463642  0.878326  1
  O  O39  1  0.904451  0.981772  0.856263  1
