# generated using pymatgen
data_MnPO4
_symmetry_space_group_name_H-M   'P 1'
_cell_length_a   6.89349057
_cell_length_b   8.91828402
_cell_length_c   8.91828351
_cell_angle_alpha   95.65490655
_cell_angle_beta   63.11606986
_cell_angle_gamma   116.88405175
_symmetry_Int_Tables_number   1
_chemical_formula_structural   MnPO4
_chemical_formula_sum   'Mn6 P6 O24'
_cell_volume   432.28709233
_cell_formula_units_Z   6
loop_
 _symmetry_equiv_pos_site_id
 _symmetry_equiv_pos_as_xyz
  1  'x, y, z'
loop_
 _atom_site_type_symbol
 _atom_site_label
 _atom_site_symmetry_multiplicity
 _atom_site_fract_x
 _atom_site_fract_y
 _atom_site_fract_z
 _atom_site_occupancy
  Mn  Mn0  1  0.808715  0.381064  0.935203  1
  Mn  Mn1  1  0.750000  0.725757  0.725755  1
  Mn  Mn2  1  0.308725  0.064795  0.618944  1
  Mn  Mn3  1  0.691275  0.935205  0.381056  1
  Mn  Mn4  1  0.250000  0.274243  0.274245  1
  Mn  Mn5  1  0.191285  0.618936  0.064797  1
  P  P6  1  0.847586  0.120807  0.652396  1
  P  P7  1  0.749996  0.292604  0.292604  1
  P  P8  1  0.347585  0.347602  0.879195  1
  P  P9  1  0.652415  0.652398  0.120805  1
  P  P10  1  0.250004  0.707396  0.707396  1
  P  P11  1  0.152414  0.879193  0.347604  1
  O  O12  1  0.747244  0.186450  0.821623  1
  O  O13  1  0.865917  0.169600  0.265827  1
  O  O14  1  0.644811  0.041315  0.591060  1
  O  O15  1  0.956841  0.473431  0.269100  1
  O  O16  1  0.918472  0.735651  0.484405  1
  O  O17  1  0.907838  0.979527  0.682268  1
  O  O18  1  0.592165  0.682274  0.979525  1
  O  O19  1  0.581537  0.484403  0.735655  1
  O  O20  1  0.543146  0.269097  0.473435  1
  O  O21  1  0.855185  0.591057  0.041312  1
  O  O22  1  0.634079  0.265827  0.169599  1
  O  O23  1  0.247233  0.178379  0.813557  1
  O  O24  1  0.752767  0.821621  0.186443  1
  O  O25  1  0.365921  0.734173  0.830401  1
  O  O26  1  0.144815  0.408943  0.958688  1
  O  O27  1  0.456854  0.730903  0.526565  1
  O  O28  1  0.418463  0.515597  0.264345  1
  O  O29  1  0.407835  0.317726  0.020475  1
  O  O30  1  0.092162  0.020473  0.317732  1
  O  O31  1  0.081528  0.264349  0.515595  1
  O  O32  1  0.043159  0.526569  0.730900  1
  O  O33  1  0.355189  0.958685  0.408940  1
  O  O34  1  0.134083  0.830400  0.734173  1
  O  O35  1  0.252756  0.813550  0.178377  1
