# generated using pymatgen
data_CoPO4
_symmetry_space_group_name_H-M   'P 1'
_cell_length_a   10.38027598
_cell_length_b   10.38027549
_cell_length_c   24.72285510
_cell_angle_alpha   90.00000000
_cell_angle_beta   90.00000000
_cell_angle_gamma   60.00000398
_symmetry_Int_Tables_number   1
_chemical_formula_structural   CoPO4
_chemical_formula_sum   'Co24 P24 O96'
_cell_volume   2306.99712134
_cell_formula_units_Z   24
loop_
 _symmetry_equiv_pos_site_id
 _symmetry_equiv_pos_as_xyz
  1  'x, y, z'
loop_
 _atom_site_type_symbol
 _atom_site_label
 _atom_site_symmetry_multiplicity
 _atom_site_fract_x
 _atom_site_fract_y
 _atom_site_fract_z
 _atom_site_occupancy
  Co  Co0  1  0.304688  0.885378  0.846423  1
  Co  Co1  1  0.148242  0.685148  0.683601  1
  Co  Co2  1  0.314852  0.833390  0.516934  1
  Co  Co3  1  0.190065  0.695312  0.013089  1
  Co  Co4  1  0.165378  0.632534  0.377540  1
  Co  Co5  1  0.367466  0.797912  0.210873  1
  Co  Co6  1  0.114622  0.190065  0.679756  1
  Co  Co7  1  0.797912  0.834622  0.544207  1
  Co  Co8  1  0.833390  0.851758  0.850267  1
  Co  Co9  1  0.654097  0.666125  0.655549  1
  Co  Co10  1  0.320222  0.345903  0.822216  1
  Co  Co11  1  0.333875  0.320222  0.488882  1
  Co  Co12  1  0.666125  0.679778  0.988882  1
  Co  Co13  1  0.679778  0.654097  0.322216  1
  Co  Co14  1  0.345903  0.333875  0.155549  1
  Co  Co15  1  0.166610  0.148242  0.350267  1
  Co  Co16  1  0.202088  0.165378  0.044207  1
  Co  Co17  1  0.885378  0.809935  0.179756  1
  Co  Co18  1  0.632534  0.202088  0.710873  1
  Co  Co19  1  0.834622  0.367466  0.877540  1
  Co  Co20  1  0.809935  0.304688  0.513089  1
  Co  Co21  1  0.685148  0.166610  0.016934  1
  Co  Co22  1  0.851758  0.314852  0.183601  1
  Co  Co23  1  0.695312  0.114622  0.346423  1
  P  P24  1  0.325635  0.884132  0.973244  1
  P  P25  1  0.305179  0.855807  0.643222  1
  P  P26  1  0.160986  0.694821  0.809888  1
  P  P27  1  0.130953  0.654425  0.503933  1
  P  P28  1  0.209768  0.674365  0.139911  1
  P  P29  1  0.345575  0.785378  0.337267  1
  P  P30  1  0.115868  0.209768  0.806578  1
  P  P31  1  0.785378  0.869047  0.670600  1
  P  P32  1  0.646223  0.681641  0.854688  1
  P  P33  1  0.327864  0.353777  0.021354  1
  P  P34  1  0.144193  0.160986  0.476555  1
  P  P35  1  0.318359  0.327864  0.688021  1
  P  P36  1  0.681641  0.672136  0.188021  1
  P  P37  1  0.855807  0.839014  0.976555  1
  P  P38  1  0.672136  0.646223  0.521354  1
  P  P39  1  0.353777  0.318359  0.354688  1
  P  P40  1  0.214622  0.130953  0.170600  1
  P  P41  1  0.884132  0.790232  0.306578  1
  P  P42  1  0.654425  0.214622  0.837267  1
  P  P43  1  0.790232  0.325635  0.639911  1
  P  P44  1  0.869047  0.345575  0.003933  1
  P  P45  1  0.839014  0.305179  0.309888  1
  P  P46  1  0.694821  0.144193  0.143222  1
  P  P47  1  0.674365  0.115868  0.473244  1
  O  O48  1  0.182475  0.986800  0.675765  1
  O  O49  1  0.200965  0.007394  0.007824  1
  O  O50  1  0.221582  0.950373  0.338955  1
  O  O51  1  0.995561  0.734782  0.805293  1
  O  O52  1  0.169274  0.817525  0.842432  1
  O  O53  1  0.999956  0.691840  0.543048  1
  O  O54  1  0.171956  0.778418  0.505622  1
  O  O55  1  0.325264  0.943860  0.915657  1
  O  O56  1  0.208359  0.799035  0.174491  1
  O  O57  1  0.048507  0.703124  0.134668  1
  O  O58  1  0.314964  0.908821  0.585629  1
  O  O59  1  0.085606  0.637825  0.445583  1
  O  O60  1  0.223785  0.685036  0.752296  1
  O  O61  1  0.265218  0.730343  0.638626  1
  O  O62  1  0.269122  0.674736  0.082323  1
  O  O63  1  0.296876  0.751631  0.968002  1
  O  O64  1  0.475874  0.836791  0.001527  1
  O  O65  1  0.308160  0.691796  0.376381  1
  O  O66  1  0.456065  0.797790  0.672577  1
  O  O67  1  0.191821  0.488964  0.678126  1
  O  O68  1  0.362175  0.723431  0.278917  1
  O  O69  1  0.495594  0.769648  0.355906  1
  O  O70  1  0.691796  0.000044  0.709714  1
  O  O71  1  0.221989  0.506369  0.995569  1
  O  O72  1  0.730343  0.004439  0.971959  1
  O  O73  1  0.253855  0.543935  0.839243  1
  O  O74  1  0.233206  0.468120  0.329809  1
  O  O75  1  0.265242  0.504406  0.522573  1
  O  O76  1  0.056140  0.269122  0.748990  1
  O  O77  1  0.493631  0.728358  0.828902  1
  O  O78  1  0.723431  0.914394  0.612250  1
  O  O79  1  0.751631  0.951493  0.301335  1
  O  O80  1  0.312665  0.524126  0.168193  1
  O  O81  1  0.163209  0.312665  0.834860  1
  O  O82  1  0.680786  0.808179  0.844793  1
  O  O83  1  0.992606  0.208359  0.841157  1
  O  O84  1  0.091179  0.223785  0.418963  1
  O  O85  1  0.511036  0.680786  0.511460  1
  O  O86  1  0.531880  0.701326  0.163143  1
  O  O87  1  0.701326  0.766794  0.496476  1
  O  O88  1  0.013200  0.169274  0.509098  1
  O  O89  1  0.290698  0.356910  0.082470  1
  O  O90  1  0.647608  0.709302  0.249136  1
  O  O91  1  0.049627  0.171956  0.172288  1
  O  O92  1  0.202210  0.253855  0.505910  1
  O  O93  1  0.230352  0.265242  0.189239  1
  O  O94  1  0.728358  0.778011  0.162236  1
  O  O95  1  0.643090  0.647608  0.915803  1
  O  O96  1  0.356910  0.352392  0.415803  1
  O  O97  1  0.271642  0.221989  0.662236  1
  O  O98  1  0.769648  0.734758  0.689239  1
  O  O99  1  0.797790  0.746145  0.005910  1
  O  O100  1  0.950373  0.828044  0.672288  1
  O  O101  1  0.352392  0.290698  0.749136  1
  O  O102  1  0.709302  0.643090  0.582470  1
  O  O103  1  0.986800  0.830726  0.009098  1
  O  O104  1  0.298674  0.233206  0.996476  1
  O  O105  1  0.468120  0.298674  0.663143  1
  O  O106  1  0.488964  0.319214  0.011460  1
  O  O107  1  0.908821  0.776215  0.918963  1
  O  O108  1  0.007394  0.791641  0.341157  1
  O  O109  1  0.319214  0.191821  0.344793  1
  O  O110  1  0.836791  0.687335  0.334860  1
  O  O111  1  0.687335  0.475874  0.668193  1
  O  O112  1  0.248369  0.048507  0.801335  1
  O  O113  1  0.276569  0.085606  0.112250  1
  O  O114  1  0.506369  0.271642  0.328902  1
  O  O115  1  0.943860  0.730878  0.248990  1
  O  O116  1  0.734758  0.495594  0.022573  1
  O  O117  1  0.766794  0.531880  0.829809  1
  O  O118  1  0.746145  0.456065  0.339243  1
  O  O119  1  0.269657  0.995561  0.471959  1
  O  O120  1  0.778011  0.493631  0.495569  1
  O  O121  1  0.308204  0.999956  0.209714  1
  O  O122  1  0.504406  0.230352  0.855906  1
  O  O123  1  0.637825  0.276569  0.778917  1
  O  O124  1  0.808179  0.511036  0.178126  1
  O  O125  1  0.543935  0.202210  0.172577  1
  O  O126  1  0.691840  0.308204  0.876381  1
  O  O127  1  0.524126  0.163209  0.501527  1
  O  O128  1  0.703124  0.248369  0.468002  1
  O  O129  1  0.730878  0.325264  0.582323  1
  O  O130  1  0.734782  0.269657  0.138626  1
  O  O131  1  0.776215  0.314964  0.252296  1
  O  O132  1  0.914394  0.362175  0.945583  1
  O  O133  1  0.685036  0.091179  0.085629  1
  O  O134  1  0.951493  0.296876  0.634668  1
  O  O135  1  0.791641  0.200965  0.674491  1
  O  O136  1  0.674736  0.056140  0.415657  1
  O  O137  1  0.828044  0.221582  0.005622  1
  O  O138  1  0.000044  0.308160  0.043048  1
  O  O139  1  0.830726  0.182475  0.342432  1
  O  O140  1  0.004439  0.265218  0.305293  1
  O  O141  1  0.778418  0.049627  0.838955  1
  O  O142  1  0.799035  0.992606  0.507824  1
  O  O143  1  0.817525  0.013200  0.175765  1
