# generated using pymatgen
data_Ca9Co(PO4)7
_symmetry_space_group_name_H-M   'P 1'
_cell_length_a   13.81921113
_cell_length_b   13.81921113
_cell_length_c   13.81921132
_cell_angle_alpha   44.51156270
_cell_angle_beta   44.51156270
_cell_angle_gamma   44.51155973
_symmetry_Int_Tables_number   1
_chemical_formula_structural   Ca9Co(PO4)7
_chemical_formula_sum   'Ca18 Co2 P14 O56'
_cell_volume   1179.31982371
_cell_formula_units_Z   2
loop_
 _symmetry_equiv_pos_site_id
 _symmetry_equiv_pos_as_xyz
  1  'x, y, z'
loop_
 _atom_site_type_symbol
 _atom_site_label
 _atom_site_symmetry_multiplicity
 _atom_site_fract_x
 _atom_site_fract_y
 _atom_site_fract_z
 _atom_site_occupancy
  Ca  Ca0  1  0.064356  0.653958  0.079720  1
  Ca  Ca1  1  0.351981  0.908843  0.933973  1
  Ca  Ca2  1  0.408843  0.851981  0.433973  1
  Ca  Ca3  1  0.550356  0.972166  0.952309  1
  Ca  Ca4  1  0.153958  0.564356  0.579720  1
  Ca  Ca5  1  0.050356  0.452309  0.472166  1
  Ca  Ca6  1  0.908843  0.933973  0.351981  1
  Ca  Ca7  1  0.452309  0.472166  0.050356  1
  Ca  Ca8  1  0.564356  0.579720  0.153958  1
  Ca  Ca9  1  0.079720  0.064356  0.653958  1
  Ca  Ca10  1  0.972166  0.952309  0.550356  1
  Ca  Ca11  1  0.433973  0.408843  0.851981  1
  Ca  Ca12  1  0.952309  0.550356  0.972166  1
  Ca  Ca13  1  0.851981  0.433973  0.408843  1
  Ca  Ca14  1  0.472166  0.050356  0.452309  1
  Ca  Ca15  1  0.579720  0.153958  0.564356  1
  Ca  Ca16  1  0.653958  0.079720  0.064356  1
  Ca  Ca17  1  0.933973  0.351981  0.908843  1
  Co  Co18  1  0.000284  0.000284  0.000284  1
  Co  Co19  1  0.500284  0.500284  0.500284  1
  P  P20  1  0.278237  0.819818  0.311460  1
  P  P21  1  0.188257  0.684247  0.720078  1
  P  P22  1  0.184247  0.688257  0.220078  1
  P  P23  1  0.319818  0.778237  0.811460  1
  P  P24  1  0.684247  0.720078  0.188257  1
  P  P25  1  0.778237  0.811460  0.319818  1
  P  P26  1  0.271817  0.271817  0.271817  1
  P  P27  1  0.771817  0.771817  0.771817  1
  P  P28  1  0.311460  0.278237  0.819818  1
  P  P29  1  0.220078  0.184247  0.688257  1
  P  P30  1  0.688257  0.220078  0.184247  1
  P  P31  1  0.811460  0.319818  0.778237  1
  P  P32  1  0.819818  0.311460  0.278237  1
  P  P33  1  0.720078  0.188257  0.684247  1
  O  O34  1  0.112470  0.866972  0.132252  1
  O  O35  1  0.136631  0.851806  0.667089  1
  O  O36  1  0.139995  0.876655  0.881873  1
  O  O37  1  0.118199  0.833371  0.385468  1
  O  O38  1  0.261862  0.902887  0.360014  1
  O  O39  1  0.114584  0.675892  0.681716  1
  O  O40  1  0.089496  0.647775  0.392817  1
  O  O41  1  0.357956  0.869867  0.138435  1
  O  O42  1  0.369867  0.857956  0.638435  1
  O  O43  1  0.147775  0.589496  0.892817  1
  O  O44  1  0.175892  0.614584  0.181716  1
  O  O45  1  0.107004  0.387603  0.282683  1
  O  O46  1  0.402887  0.761862  0.860014  1
  O  O47  1  0.607004  0.782682  0.887603  1
  O  O48  1  0.589496  0.892817  0.147775  1
  O  O49  1  0.618199  0.885468  0.333371  1
  O  O50  1  0.333371  0.618199  0.885468  1
  O  O51  1  0.376655  0.639995  0.381873  1
  O  O52  1  0.351806  0.636631  0.167089  1
  O  O53  1  0.366972  0.612470  0.632252  1
  O  O54  1  0.138435  0.357956  0.869867  1
  O  O55  1  0.167089  0.351806  0.636631  1
  O  O56  1  0.761862  0.860014  0.402887  1
  O  O57  1  0.782682  0.887603  0.607004  1
  O  O58  1  0.612470  0.632252  0.366972  1
  O  O59  1  0.675892  0.681716  0.114584  1
  O  O60  1  0.876655  0.881873  0.139995  1
  O  O61  1  0.313512  0.313512  0.313512  1
  O  O62  1  0.813512  0.813512  0.813512  1
  O  O63  1  0.381873  0.376655  0.639995  1
  O  O64  1  0.181716  0.175892  0.614584  1
  O  O65  1  0.132252  0.112470  0.866972  1
  O  O66  1  0.387603  0.282683  0.107004  1
  O  O67  1  0.360014  0.261862  0.902887  1
  O  O68  1  0.851806  0.667089  0.136631  1
  O  O69  1  0.857956  0.638435  0.369867  1
  O  O70  1  0.647775  0.392817  0.089496  1
  O  O71  1  0.638435  0.369867  0.857956  1
  O  O72  1  0.639995  0.381873  0.376655  1
  O  O73  1  0.632252  0.366972  0.612470  1
  O  O74  1  0.385468  0.118199  0.833371  1
  O  O75  1  0.392817  0.089496  0.647775  1
  O  O76  1  0.282683  0.107004  0.387603  1
  O  O77  1  0.887603  0.607004  0.782682  1
  O  O78  1  0.614584  0.181716  0.175892  1
  O  O79  1  0.860014  0.402887  0.761862  1
  O  O80  1  0.833371  0.385468  0.118199  1
  O  O81  1  0.636631  0.167089  0.351806  1
  O  O82  1  0.667089  0.136631  0.851806  1
  O  O83  1  0.885468  0.333371  0.618199  1
  O  O84  1  0.902887  0.360014  0.261862  1
  O  O85  1  0.681716  0.114584  0.675892  1
  O  O86  1  0.866972  0.132252  0.112470  1
  O  O87  1  0.881873  0.139995  0.876655  1
  O  O88  1  0.869867  0.138435  0.357956  1
  O  O89  1  0.892817  0.147775  0.589496  1
