# generated using pymatgen
data_V2O5
_symmetry_space_group_name_H-M   'P 1'
_cell_length_a   15.22401755
_cell_length_b   4.89162918
_cell_length_c   20.94255398
_cell_angle_alpha   90.00000000
_cell_angle_beta   108.46369726
_cell_angle_gamma   90.00000000
_symmetry_Int_Tables_number   1
_chemical_formula_structural   V2O5
_chemical_formula_sum   'V28 O70'
_cell_volume   1479.31616809
_cell_formula_units_Z   14
loop_
 _symmetry_equiv_pos_site_id
 _symmetry_equiv_pos_as_xyz
  1  'x, y, z'
loop_
 _atom_site_type_symbol
 _atom_site_label
 _atom_site_symmetry_multiplicity
 _atom_site_fract_x
 _atom_site_fract_y
 _atom_site_fract_z
 _atom_site_occupancy
  V  V0  1  0.065974  0.926578  0.655043  1
  V  V1  1  0.143945  0.920613  0.817983  1
  V  V2  1  0.094081  0.109667  0.518453  1
  V  V3  1  0.299030  0.912285  0.971662  1
  V  V4  1  0.065974  0.073422  0.155043  1
  V  V5  1  0.143945  0.079387  0.317983  1
  V  V6  1  0.279881  0.918133  0.611652  1
  V  V7  1  0.404163  0.847548  0.768749  1
  V  V8  1  0.094081  0.890333  0.018453  1
  V  V9  1  0.299030  0.087715  0.471662  1
  V  V10  1  0.508705  0.916757  0.929865  1
  V  V11  1  0.279881  0.081867  0.111652  1
  V  V12  1  0.491295  0.916757  0.570135  1
  V  V13  1  0.595837  0.847548  0.731251  1
  V  V14  1  0.404163  0.152452  0.268749  1
  V  V15  1  0.508705  0.083243  0.429865  1
  V  V16  1  0.720119  0.918133  0.888348  1
  V  V17  1  0.491295  0.083243  0.070135  1
  V  V18  1  0.700970  0.912285  0.528338  1
  V  V19  1  0.905919  0.109667  0.981547  1
  V  V20  1  0.595837  0.152452  0.231251  1
  V  V21  1  0.720119  0.081867  0.388348  1
  V  V22  1  0.856055  0.920613  0.682017  1
  V  V23  1  0.934026  0.926578  0.844957  1
  V  V24  1  0.700970  0.087715  0.028338  1
  V  V25  1  0.905919  0.890333  0.481547  1
  V  V26  1  0.856055  0.079387  0.182017  1
  V  V27  1  0.934026  0.073422  0.344957  1
  O  O28  1  0.004825  0.023194  0.943309  1
  O  O29  1  0.039470  0.032451  0.829139  1
  O  O30  1  0.062246  0.600467  0.654534  1
  O  O31  1  0.141563  0.593155  0.820017  1
  O  O32  1  0.004825  0.976806  0.443309  1
  O  O33  1  0.145394  0.018927  0.736016  1
  O  O34  1  0.239781  0.032190  0.889258  1
  O  O35  1  0.294114  0.586729  0.967154  1
  O  O36  1  0.097106  0.433841  0.510880  1
  O  O37  1  0.160271  0.022707  0.612188  1
  O  O38  1  0.039470  0.967549  0.329139  1
  O  O39  1  0.205882  0.987365  0.511629  1
  O  O40  1  0.419084  0.011370  0.971611  1
  O  O41  1  0.335878  0.617957  0.780503  1
  O  O42  1  0.062246  0.399533  0.154534  1
  O  O43  1  0.141563  0.406845  0.320017  1
  O  O44  1  0.285024  0.593164  0.618773  1
  O  O45  1  0.342672  0.039490  0.694974  1
  O  O46  1  0.145394  0.981073  0.236016  1
  O  O47  1  0.239781  0.967810  0.389258  1
  O  O48  1  0.448678  0.037905  0.845867  1
  O  O49  1  0.294114  0.413271  0.467154  1
  O  O50  1  0.502985  0.591684  0.923029  1
  O  O51  1  0.097106  0.566159  0.010880  1
  O  O52  1  0.160271  0.977293  0.112188  1
  O  O53  1  0.370102  0.008730  0.570046  1
  O  O54  1  0.500000  0.690617  0.750000  1
  O  O55  1  0.205882  0.012635  0.011629  1
  O  O56  1  0.419084  0.988630  0.471611  1
  O  O57  1  0.335878  0.382043  0.280503  1
  O  O58  1  0.629898  0.008730  0.929954  1
  O  O59  1  0.285024  0.406836  0.118773  1
  O  O60  1  0.497015  0.591684  0.576971  1
  O  O61  1  0.551322  0.037905  0.654133  1
  O  O62  1  0.342672  0.960510  0.194974  1
  O  O63  1  0.657328  0.039490  0.805026  1
  O  O64  1  0.448678  0.962095  0.345867  1
  O  O65  1  0.502985  0.408316  0.423029  1
  O  O66  1  0.714976  0.593164  0.881227  1
  O  O67  1  0.370102  0.991270  0.070046  1
  O  O68  1  0.664122  0.617957  0.719497  1
  O  O69  1  0.580916  0.011370  0.528389  1
  O  O70  1  0.794118  0.987365  0.988371  1
  O  O71  1  0.500000  0.309383  0.250000  1
  O  O72  1  0.629898  0.991270  0.429954  1
  O  O73  1  0.839729  0.022707  0.887812  1
  O  O74  1  0.902894  0.433841  0.989120  1
  O  O75  1  0.497015  0.408316  0.076971  1
  O  O76  1  0.705886  0.586729  0.532846  1
  O  O77  1  0.551322  0.962095  0.154133  1
  O  O78  1  0.760219  0.032190  0.610742  1
  O  O79  1  0.854606  0.018927  0.763984  1
  O  O80  1  0.657328  0.960510  0.305026  1
  O  O81  1  0.714976  0.406836  0.381227  1
  O  O82  1  0.858437  0.593155  0.679983  1
  O  O83  1  0.937754  0.600467  0.845466  1
  O  O84  1  0.664122  0.382043  0.219497  1
  O  O85  1  0.580916  0.988630  0.028389  1
  O  O86  1  0.794118  0.012635  0.488371  1
  O  O87  1  0.960530  0.032451  0.670861  1
  O  O88  1  0.839729  0.977293  0.387812  1
  O  O89  1  0.902894  0.566159  0.489120  1
  O  O90  1  0.705886  0.413271  0.032846  1
  O  O91  1  0.760219  0.967810  0.110742  1
  O  O92  1  0.854606  0.981073  0.263984  1
  O  O93  1  0.995175  0.023194  0.556691  1
  O  O94  1  0.858437  0.406845  0.179983  1
  O  O95  1  0.937754  0.399533  0.345466  1
  O  O96  1  0.960530  0.967549  0.170861  1
  O  O97  1  0.995175  0.976806  0.056691  1
