# generated using pymatgen
data_Na4V2C4SO16
_symmetry_space_group_name_H-M   'P 1'
_cell_length_a   9.96518313
_cell_length_b   9.75932930
_cell_length_c   9.96518304
_cell_angle_alpha   60.40209130
_cell_angle_beta   91.86733286
_cell_angle_gamma   60.40208756
_symmetry_Int_Tables_number   1
_chemical_formula_structural   Na4V2C4SO16
_chemical_formula_sum   'Na8 V4 C8 S2 O32'
_cell_volume   681.95694363
_cell_formula_units_Z   2
loop_
 _symmetry_equiv_pos_site_id
 _symmetry_equiv_pos_as_xyz
  1  'x, y, z'
loop_
 _atom_site_type_symbol
 _atom_site_label
 _atom_site_symmetry_multiplicity
 _atom_site_fract_x
 _atom_site_fract_y
 _atom_site_fract_z
 _atom_site_occupancy
  Na  Na0  1  0.084200  0.831599  0.834201  1
  Na  Na1  1  0.084248  0.250000  0.834248  1
  Na  Na2  1  0.334248  0.750000  0.584248  1
  Na  Na3  1  0.334200  0.331599  0.584201  1
  Na  Na4  1  0.665799  0.668401  0.415800  1
  Na  Na5  1  0.665752  0.250000  0.415752  1
  Na  Na6  1  0.915752  0.750000  0.165752  1
  Na  Na7  1  0.915799  0.168401  0.165799  1
  V  V8  1  0.000000  0.500000  0.000000  1
  V  V9  1  0.500000  0.000000  0.500000  1
  V  V10  1  0.500000  0.500000  0.000000  1
  V  V11  1  0.500000  0.000000  0.000000  1
  C  C12  1  0.360190  0.929277  0.778792  1
  C  C13  1  0.278792  0.429277  0.860190  1
  C  C14  1  0.710533  0.929277  0.791931  1
  C  C15  1  0.708069  0.570723  0.789467  1
  C  C16  1  0.291931  0.429277  0.210533  1
  C  C17  1  0.289467  0.070723  0.208069  1
  C  C18  1  0.721208  0.570723  0.139810  1
  C  C19  1  0.639810  0.070723  0.221208  1
  S  S20  1  0.125000  0.750000  0.375000  1
  S  S21  1  0.875000  0.250000  0.625000  1
  O  O22  1  0.357221  0.785810  0.888949  1
  O  O23  1  0.065872  0.877370  0.433150  1
  O  O24  1  0.364508  0.953517  0.639182  1
  O  O25  1  0.139182  0.453517  0.864508  1
  O  O26  1  0.681975  0.953517  0.907301  1
  O  O27  1  0.305735  0.548634  0.853374  1
  O  O28  1  0.056758  0.877370  0.189480  1
  O  O29  1  0.066850  0.622630  0.434128  1
  O  O30  1  0.402008  0.951366  0.354367  1
  O  O31  1  0.592699  0.546483  0.818025  1
  O  O32  1  0.388949  0.285810  0.857221  1
  O  O33  1  0.310520  0.622630  0.443242  1
  O  O34  1  0.856969  0.785810  0.825241  1
  O  O35  1  0.674759  0.714190  0.643031  1
  O  O36  1  0.353374  0.048634  0.805735  1
  O  O37  1  0.145633  0.548634  0.097992  1
  O  O38  1  0.854367  0.451366  0.902008  1
  O  O39  1  0.646626  0.951366  0.194265  1
  O  O40  1  0.325241  0.285810  0.356969  1
  O  O41  1  0.143031  0.214190  0.174759  1
  O  O42  1  0.689480  0.377370  0.556758  1
  O  O43  1  0.611051  0.714190  0.142779  1
  O  O44  1  0.407301  0.453517  0.181975  1
  O  O45  1  0.597992  0.048634  0.645633  1
  O  O46  1  0.933150  0.377370  0.565872  1
  O  O47  1  0.943242  0.122630  0.810520  1
  O  O48  1  0.694265  0.451366  0.146626  1
  O  O49  1  0.318025  0.046483  0.092699  1
  O  O50  1  0.860818  0.546483  0.135492  1
  O  O51  1  0.635492  0.046483  0.360818  1
  O  O52  1  0.934128  0.122630  0.566850  1
  O  O53  1  0.642779  0.214190  0.111051  1
