# generated using pymatgen
data_V6O11
_symmetry_space_group_name_H-M   'P 1'
_cell_length_a   5.70439125
_cell_length_b   5.71289238
_cell_length_c   13.27305740
_cell_angle_alpha   90.00000000
_cell_angle_beta   90.00000000
_cell_angle_gamma   119.95079048
_symmetry_Int_Tables_number   1
_chemical_formula_structural   V6O11
_chemical_formula_sum   'V12 O22'
_cell_volume   374.78490517
_cell_formula_units_Z   2
loop_
 _symmetry_equiv_pos_site_id
 _symmetry_equiv_pos_as_xyz
  1  'x, y, z'
loop_
 _atom_site_type_symbol
 _atom_site_label
 _atom_site_symmetry_multiplicity
 _atom_site_fract_x
 _atom_site_fract_y
 _atom_site_fract_z
 _atom_site_occupancy
  V  V0  1  0.999958  0.999916  0.648477  1
  V  V1  1  0.001085  0.002169  0.851378  1
  V  V2  1  0.497841  0.995684  0.499961  1
  V  V3  1  0.000372  0.499077  0.499637  1
  V  V4  1  0.498705  0.499077  0.499637  1
  V  V5  1  0.334289  0.668578  0.247413  1
  V  V6  1  0.665711  0.331422  0.747413  1
  V  V7  1  0.501295  0.500923  0.999637  1
  V  V8  1  0.999628  0.500923  0.999637  1
  V  V9  1  0.502159  0.004316  0.999961  1
  V  V10  1  0.998915  0.997831  0.351378  1
  V  V11  1  0.000042  0.000084  0.148477  1
  O  O12  1  0.302590  0.146319  0.750059  1
  O  O13  1  0.153548  0.307097  0.250592  1
  O  O14  1  0.332655  0.165828  0.423040  1
  O  O15  1  0.333437  0.169196  0.077624  1
  O  O16  1  0.167101  0.334201  0.578925  1
  O  O17  1  0.168480  0.336961  0.920943  1
  O  O18  1  0.843729  0.146319  0.750059  1
  O  O19  1  0.833173  0.165828  0.423040  1
  O  O20  1  0.667015  0.334029  0.911390  1
  O  O21  1  0.665589  0.331179  0.588664  1
  O  O22  1  0.835759  0.169196  0.077624  1
  O  O23  1  0.164241  0.830804  0.577624  1
  O  O24  1  0.334411  0.668821  0.088664  1
  O  O25  1  0.332985  0.665971  0.411390  1
  O  O26  1  0.166827  0.834172  0.923040  1
  O  O27  1  0.156271  0.853681  0.250059  1
  O  O28  1  0.831520  0.663039  0.420943  1
  O  O29  1  0.832899  0.665799  0.078925  1
  O  O30  1  0.666563  0.830804  0.577624  1
  O  O31  1  0.667345  0.834172  0.923040  1
  O  O32  1  0.846452  0.692903  0.750592  1
  O  O33  1  0.697410  0.853681  0.250059  1
