# generated using pymatgen
data_Na2Ti4O9
_symmetry_space_group_name_H-M   'P 1'
_cell_length_a   10.71379720
_cell_length_b   8.85208084
_cell_length_c   12.44884925
_cell_angle_alpha   69.22070339
_cell_angle_beta   101.93792026
_cell_angle_gamma   89.98172266
_symmetry_Int_Tables_number   1
_chemical_formula_structural   Na2Ti4O9
_chemical_formula_sum   'Na12 Ti24 O54'
_cell_volume   1076.46028093
_cell_formula_units_Z   6
loop_
 _symmetry_equiv_pos_site_id
 _symmetry_equiv_pos_as_xyz
  1  'x, y, z'
loop_
 _atom_site_type_symbol
 _atom_site_label
 _atom_site_symmetry_multiplicity
 _atom_site_fract_x
 _atom_site_fract_y
 _atom_site_fract_z
 _atom_site_occupancy
  Na  Na0  1  0.100169  0.037906  0.286614  1
  Na  Na1  1  0.396785  0.135738  0.726182  1
  Na  Na2  1  0.396678  0.805260  0.724580  1
  Na  Na3  1  0.406483  0.470630  0.725069  1
  Na  Na4  1  0.297881  0.615673  0.144228  1
  Na  Na5  1  0.305378  0.244334  0.140757  1
  Na  Na6  1  0.695660  0.088361  0.858352  1
  Na  Na7  1  0.707159  0.711747  0.853363  1
  Na  Na8  1  0.594940  0.862216  0.276286  1
  Na  Na9  1  0.604243  0.528486  0.274095  1
  Na  Na10  1  0.604693  0.197971  0.273088  1
  Na  Na11  1  0.899767  0.317680  0.714119  1
  Ti  Ti12  1  0.183156  0.895879  0.874246  1
  Ti  Ti13  1  0.187709  0.561499  0.877739  1
  Ti  Ti14  1  0.117914  0.047509  0.568905  1
  Ti  Ti15  1  0.118484  0.714425  0.570114  1
  Ti  Ti16  1  0.194059  0.227900  0.877674  1
  Ti  Ti17  1  0.124873  0.385125  0.563962  1
  Ti  Ti18  1  0.009220  0.997002  0.008738  1
  Ti  Ti19  1  0.501204  0.666890  0.998920  1
  Ti  Ti20  1  0.370535  0.278502  0.440498  1
  Ti  Ti21  1  0.370758  0.615276  0.440929  1
  Ti  Ti22  1  0.379412  0.942087  0.447750  1
  Ti  Ti23  1  0.510416  0.337300  0.992293  1
  Ti  Ti24  1  0.618843  0.391701  0.551022  1
  Ti  Ti25  1  0.491075  0.994447  0.009250  1
  Ti  Ti26  1  0.626689  0.056758  0.556457  1
  Ti  Ti27  1  0.627894  0.718369  0.558601  1
  Ti  Ti28  1  0.992906  0.336933  0.993162  1
  Ti  Ti29  1  0.999887  0.668593  0.000024  1
  Ti  Ti30  1  0.875187  0.948260  0.436229  1
  Ti  Ti31  1  0.881292  0.618614  0.429525  1
  Ti  Ti32  1  0.807665  0.104963  0.122277  1
  Ti  Ti33  1  0.882798  0.285888  0.431471  1
  Ti  Ti34  1  0.812352  0.771653  0.122448  1
  Ti  Ti35  1  0.818536  0.437539  0.126220  1
  O  O36  1  0.059124  0.404143  0.849031  1
  O  O37  1  0.059800  0.741889  0.850317  1
  O  O38  1  0.060705  0.077360  0.852856  1
  O  O39  1  0.008060  0.870149  0.593275  1
  O  O40  1  0.009084  0.534229  0.593198  1
  O  O41  1  0.009183  0.206412  0.592566  1
  O  O42  1  0.220014  0.304032  0.726415  1
  O  O43  1  0.219711  0.970086  0.726321  1
  O  O44  1  0.219728  0.635883  0.726758  1
  O  O45  1  0.304194  0.698128  0.939226  1
  O  O46  1  0.304977  0.027881  0.940002  1
  O  O47  1  0.305587  0.364185  0.940176  1
  O  O48  1  0.218050  0.909343  0.515805  1
  O  O49  1  0.220044  0.576192  0.516490  1
  O  O50  1  0.221385  0.240009  0.517372  1
  O  O51  1  0.123908  0.145098  0.050102  1
  O  O52  1  0.124596  0.808931  0.044374  1
  O  O53  1  0.124908  0.478426  0.041192  1
  O  O54  1  0.315535  0.830478  0.346587  1
  O  O55  1  0.317493  0.159518  0.341186  1
  O  O56  1  0.322525  0.495375  0.341706  1
  O  O57  1  0.510514  0.219814  0.890542  1
  O  O58  1  0.514110  0.558508  0.887572  1
  O  O59  1  0.516321  0.886662  0.892892  1
  O  O60  1  0.444060  0.382720  0.568341  1
  O  O61  1  0.446134  0.050058  0.568318  1
  O  O62  1  0.447298  0.714491  0.569958  1
  O  O63  1  0.551669  0.285578  0.429064  1
  O  O64  1  0.551884  0.618925  0.429275  1
  O  O65  1  0.554442  0.951392  0.430120  1
  O  O66  1  0.483511  0.447704  0.106497  1
  O  O67  1  0.487505  0.774947  0.112203  1
  O  O68  1  0.489782  0.114053  0.110007  1
  O  O69  1  0.672999  0.839433  0.657185  1
  O  O70  1  0.679253  0.174495  0.656474  1
  O  O71  1  0.681805  0.502549  0.654380  1
  O  O72  1  0.875605  0.521811  0.958274  1
  O  O73  1  0.875336  0.854685  0.957395  1
  O  O74  1  0.877292  0.187404  0.951891  1
  O  O75  1  0.777858  0.093766  0.481628  1
  O  O76  1  0.778651  0.757751  0.483429  1
  O  O77  1  0.782259  0.423199  0.485381  1
  O  O78  1  0.694696  0.969725  0.059859  1
  O  O79  1  0.695919  0.304563  0.061849  1
  O  O80  1  0.696477  0.634916  0.060171  1
  O  O81  1  0.779362  0.696691  0.273215  1
  O  O82  1  0.781716  0.363821  0.274065  1
  O  O83  1  0.781839  0.029086  0.273809  1
  O  O84  1  0.991724  0.127162  0.407552  1
  O  O85  1  0.990283  0.798089  0.407879  1
  O  O86  1  0.991775  0.463966  0.406664  1
  O  O87  1  0.941336  0.255068  0.149117  1
  O  O88  1  0.940399  0.592600  0.150028  1
  O  O89  1  0.940623  0.927829  0.151246  1
