# generated using pymatgen
data_Rb2SbBr6
_symmetry_space_group_name_H-M   'P 1'
_cell_length_a   7.59343512
_cell_length_b   13.17082882
_cell_length_c   13.17082882
_cell_angle_alpha   132.10046297
_cell_angle_beta   29.85925424
_cell_angle_gamma   107.19446231
_symmetry_Int_Tables_number   1
_chemical_formula_structural   Rb2SbBr6
_chemical_formula_sum   'Rb2 Sb1 Br6'
_cell_volume   308.26989463
_cell_formula_units_Z   1
loop_
 _symmetry_equiv_pos_site_id
 _symmetry_equiv_pos_as_xyz
  1  'x, y, z'
loop_
 _atom_site_type_symbol
 _atom_site_label
 _atom_site_symmetry_multiplicity
 _atom_site_fract_x
 _atom_site_fract_y
 _atom_site_fract_z
 _atom_site_occupancy
  Rb  Rb0  1  0.508308  0.247924  0.743769  1
  Rb  Rb1  1  0.499996  0.752079  0.252080  1
  Sb  Sb2  1  0.000000  0.000000  0.000000  1
  Br  Br3  1  0.503144  0.748428  0.748428  1
  Br  Br4  1  0.496852  0.251574  0.251574  1
  Br  Br5  1  0.993140  0.250847  0.756013  1
  Br  Br6  1  0.013800  0.745682  0.240518  1
  Br  Br7  1  0.996528  0.749153  0.749154  1
  Br  Br8  1  0.996528  0.254319  0.254319  1
