# generated using pymatgen
data_Co3P4O15
_symmetry_space_group_name_H-M   'P 1'
_cell_length_a   17.83856280
_cell_length_b   6.32781732
_cell_length_c   10.57483097
_cell_angle_alpha   90.00000000
_cell_angle_beta   90.00000000
_cell_angle_gamma   90.00000000
_symmetry_Int_Tables_number   1
_chemical_formula_structural   Co3P4O15
_chemical_formula_sum   'Co12 P16 O60'
_cell_volume   1193.67810736
_cell_formula_units_Z   4
loop_
 _symmetry_equiv_pos_site_id
 _symmetry_equiv_pos_as_xyz
  1  'x, y, z'
loop_
 _atom_site_type_symbol
 _atom_site_label
 _atom_site_symmetry_multiplicity
 _atom_site_fract_x
 _atom_site_fract_y
 _atom_site_fract_z
 _atom_site_occupancy
  Co  Co0  1  0.125726  0.587108  0.495105  1
  Co  Co1  1  0.161215  0.606953  0.007866  1
  Co  Co2  1  0.239581  0.315650  0.743231  1
  Co  Co3  1  0.260419  0.815650  0.243231  1
  Co  Co4  1  0.338785  0.106953  0.507866  1
  Co  Co5  1  0.374274  0.087108  0.995105  1
  Co  Co6  1  0.625726  0.587108  0.004895  1
  Co  Co7  1  0.661215  0.606953  0.492134  1
  Co  Co8  1  0.739581  0.315650  0.756769  1
  Co  Co9  1  0.760419  0.815650  0.256769  1
  Co  Co10  1  0.838785  0.106953  0.992134  1
  Co  Co11  1  0.874274  0.087108  0.504895  1
  P  P12  1  0.049619  0.639380  0.227535  1
  P  P13  1  0.071366  0.461951  0.767174  1
  P  P14  1  0.181577  0.087627  0.479472  1
  P  P15  1  0.210182  0.101777  0.004096  1
  P  P16  1  0.289818  0.601777  0.504096  1
  P  P17  1  0.318423  0.587627  0.979472  1
  P  P18  1  0.428634  0.961951  0.267174  1
  P  P19  1  0.450381  0.139380  0.727535  1
  P  P20  1  0.549619  0.639380  0.272465  1
  P  P21  1  0.571366  0.461951  0.732826  1
  P  P22  1  0.681577  0.087627  0.020528  1
  P  P23  1  0.710182  0.101777  0.495904  1
  P  P24  1  0.789818  0.601777  0.995904  1
  P  P25  1  0.818423  0.587627  0.520528  1
  P  P26  1  0.928634  0.961951  0.232826  1
  P  P27  1  0.950381  0.139380  0.772465  1
  O  O28  1  0.008917  0.472481  0.156671  1
  O  O29  1  0.009336  0.868929  0.204392  1
  O  O30  1  0.049808  0.607465  0.373338  1
  O  O31  1  0.064008  0.580231  0.640616  1
  O  O32  1  0.088246  0.606197  0.880530  1
  O  O33  1  0.131610  0.287693  0.758020  1
  O  O34  1  0.132150  0.895667  0.501287  1
  O  O35  1  0.131378  0.684274  0.183206  1
  O  O36  1  0.135008  0.287233  0.458902  1
  O  O37  1  0.159344  0.912603  0.980318  1
  O  O38  1  0.164010  0.300515  0.032762  1
  O  O39  1  0.237056  0.120933  0.596116  1
  O  O40  1  0.240382  0.053315  0.369973  1
  O  O41  1  0.230134  0.552518  0.610217  1
  O  O42  1  0.236880  0.631957  0.384775  1
  O  O43  1  0.263120  0.131957  0.884775  1
  O  O44  1  0.269866  0.052518  0.110217  1
  O  O45  1  0.259618  0.553315  0.869973  1
  O  O46  1  0.262944  0.620933  0.096116  1
  O  O47  1  0.335990  0.800515  0.532762  1
  O  O48  1  0.340656  0.412603  0.480318  1
  O  O49  1  0.364992  0.787233  0.958902  1
  O  O50  1  0.368622  0.184274  0.683206  1
  O  O51  1  0.367850  0.395667  0.001287  1
  O  O52  1  0.368390  0.787693  0.258019  1
  O  O53  1  0.411754  0.106197  0.380530  1
  O  O54  1  0.435992  0.080231  0.140616  1
  O  O55  1  0.450192  0.107465  0.873338  1
  O  O56  1  0.490664  0.368929  0.704392  1
  O  O57  1  0.491083  0.972481  0.656671  1
  O  O58  1  0.508917  0.472481  0.343329  1
  O  O59  1  0.509336  0.868929  0.295608  1
  O  O60  1  0.549808  0.607465  0.126662  1
  O  O61  1  0.564008  0.580231  0.859384  1
  O  O62  1  0.588246  0.606197  0.619470  1
  O  O63  1  0.631610  0.287693  0.741980  1
  O  O64  1  0.632150  0.895667  0.998713  1
  O  O65  1  0.631378  0.684274  0.316794  1
  O  O66  1  0.635008  0.287233  0.041098  1
  O  O67  1  0.659344  0.912603  0.519682  1
  O  O68  1  0.664010  0.300515  0.467238  1
  O  O69  1  0.737056  0.120933  0.903884  1
  O  O70  1  0.740382  0.053315  0.130027  1
  O  O71  1  0.730134  0.552518  0.889783  1
  O  O72  1  0.736880  0.631957  0.115225  1
  O  O73  1  0.763120  0.131957  0.615225  1
  O  O74  1  0.769866  0.052518  0.389783  1
  O  O75  1  0.759618  0.553315  0.630027  1
  O  O76  1  0.762944  0.620933  0.403884  1
  O  O77  1  0.835990  0.800515  0.967238  1
  O  O78  1  0.840656  0.412603  0.019682  1
  O  O79  1  0.864992  0.787233  0.541098  1
  O  O80  1  0.868622  0.184274  0.816794  1
  O  O81  1  0.867850  0.395667  0.498713  1
  O  O82  1  0.868390  0.787693  0.241981  1
  O  O83  1  0.911754  0.106197  0.119470  1
  O  O84  1  0.935992  0.080231  0.359384  1
  O  O85  1  0.950192  0.107465  0.626662  1
  O  O86  1  0.990664  0.368929  0.795608  1
  O  O87  1  0.991083  0.972481  0.843329  1
