# generated using pymatgen
data_V9O22
_symmetry_space_group_name_H-M   'P 1'
_cell_length_a   22.18781238
_cell_length_b   3.60998089
_cell_length_c   10.31747623
_cell_angle_alpha   90.00000000
_cell_angle_beta   74.52358976
_cell_angle_gamma   90.00000000
_symmetry_Int_Tables_number   1
_chemical_formula_structural   V9O22
_chemical_formula_sum   'V18 O44'
_cell_volume   796.43975322
_cell_formula_units_Z   2
loop_
 _symmetry_equiv_pos_site_id
 _symmetry_equiv_pos_as_xyz
  1  'x, y, z'
loop_
 _atom_site_type_symbol
 _atom_site_label
 _atom_site_symmetry_multiplicity
 _atom_site_fract_x
 _atom_site_fract_y
 _atom_site_fract_z
 _atom_site_occupancy
  V  V0  1  0.026949  0.250000  0.594067  1
  V  V1  1  0.090328  0.750000  0.135378  1
  V  V2  1  0.061121  0.250000  0.902538  1
  V  V3  1  0.283170  0.250000  0.172663  1
  V  V4  1  0.251795  0.750000  0.948391  1
  V  V5  1  0.313546  0.250000  0.490285  1
  V  V6  1  0.367835  0.750000  0.674111  1
  V  V7  1  0.427899  0.250000  0.220819  1
  V  V8  1  0.405581  0.750000  0.980789  1
  V  V9  1  0.593944  0.250000  0.018543  1
  V  V10  1  0.571491  0.750000  0.777744  1
  V  V11  1  0.631998  0.250000  0.325167  1
  V  V12  1  0.686735  0.750000  0.508485  1
  V  V13  1  0.747933  0.250000  0.050338  1
  V  V14  1  0.715742  0.750000  0.826655  1
  V  V15  1  0.939334  0.750000  0.098558  1
  V  V16  1  0.909891  0.250000  0.866012  1
  V  V17  1  0.972835  0.750000  0.407403  1
  O  O18  1  0.004550  0.750000  0.574164  1
  O  O19  1  0.079762  0.250000  0.089013  1
  O  O20  1  0.010984  0.250000  0.780796  1
  O  O21  1  0.094023  0.750000  0.288722  1
  O  O22  1  0.045963  0.750000  0.953774  1
  O  O23  1  0.101022  0.250000  0.546500  1
  O  O24  1  0.172623  0.750000  0.040804  1
  O  O25  1  0.129846  0.250000  0.804661  1
  O  O26  1  0.214983  0.250000  0.272666  1
  O  O27  1  0.239425  0.250000  0.535461  1
  O  O28  1  0.302675  0.750000  0.125085  1
  O  O29  1  0.250730  0.750000  0.792941  1
  O  O30  1  0.334046  0.250000  0.298613  1
  O  O31  1  0.266338  0.250000  0.991478  1
  O  O32  1  0.392370  0.250000  0.027789  1
  O  O33  1  0.336342  0.750000  0.505424  1
  O  O34  1  0.344239  0.250000  0.657451  1
  O  O35  1  0.425765  0.750000  0.166843  1
  O  O36  1  0.357878  0.750000  0.859432  1
  O  O37  1  0.436447  0.250000  0.369607  1
  O  O38  1  0.441762  0.750000  0.619596  1
  O  O39  1  0.520817  0.250000  0.115269  1
  O  O40  1  0.478593  0.750000  0.883951  1
  O  O41  1  0.558068  0.250000  0.379959  1
  O  O42  1  0.562551  0.750000  0.629327  1
  O  O43  1  0.641484  0.250000  0.139887  1
  O  O44  1  0.573692  0.250000  0.831744  1
  O  O45  1  0.655602  0.750000  0.341891  1
  O  O46  1  0.664083  0.250000  0.493164  1
  O  O47  1  0.733273  0.750000  0.007474  1
  O  O48  1  0.607073  0.750000  0.971020  1
  O  O49  1  0.665151  0.750000  0.700353  1
  O  O50  1  0.748431  0.250000  0.206223  1
  O  O51  1  0.696381  0.250000  0.874721  1
  O  O52  1  0.760849  0.750000  0.465217  1
  O  O53  1  0.783857  0.750000  0.726464  1
  O  O54  1  0.870582  0.750000  0.196240  1
  O  O55  1  0.827269  0.250000  0.959205  1
  O  O56  1  0.898787  0.750000  0.455558  1
  O  O57  1  0.954282  0.250000  0.046581  1
  O  O58  1  0.906851  0.250000  0.712123  1
  O  O59  1  0.989290  0.750000  0.220213  1
  O  O60  1  0.920246  0.750000  0.912295  1
  O  O61  1  0.995430  0.250000  0.426157  1
