# generated using pymatgen
data_Na4Ni2C4SO16
_symmetry_space_group_name_H-M   'P 1'
_cell_length_a   9.76669189
_cell_length_b   9.69808511
_cell_length_c   9.76669194
_cell_angle_alpha   59.46231463
_cell_angle_beta   89.48023562
_cell_angle_gamma   59.46231998
_symmetry_Int_Tables_number   1
_chemical_formula_structural   Na4Ni2C4SO16
_chemical_formula_sum   'Na8 Ni4 C8 S2 O32'
_cell_volume   646.40801699
_cell_formula_units_Z   2
loop_
 _symmetry_equiv_pos_site_id
 _symmetry_equiv_pos_as_xyz
  1  'x, y, z'
loop_
 _atom_site_type_symbol
 _atom_site_label
 _atom_site_symmetry_multiplicity
 _atom_site_fract_x
 _atom_site_fract_y
 _atom_site_fract_z
 _atom_site_occupancy
  Na  Na0  1  0.085180  0.829638  0.835180  1
  Na  Na1  1  0.084571  0.250000  0.834571  1
  Na  Na2  1  0.334571  0.750000  0.584571  1
  Na  Na3  1  0.335180  0.329638  0.585180  1
  Na  Na4  1  0.664820  0.670362  0.414820  1
  Na  Na5  1  0.665429  0.250000  0.415429  1
  Na  Na6  1  0.915429  0.750000  0.165429  1
  Na  Na7  1  0.914820  0.170362  0.164820  1
  Ni  Ni8  1  0.000000  0.500000  0.000000  1
  Ni  Ni9  1  0.500000  0.000000  0.500000  1
  Ni  Ni10  1  0.500000  0.500000  0.000000  1
  Ni  Ni11  1  0.500000  0.000000  0.000000  1
  C  C12  1  0.360715  0.929685  0.778815  1
  C  C13  1  0.278815  0.429685  0.860715  1
  C  C14  1  0.709599  0.929685  0.791500  1
  C  C15  1  0.708500  0.570315  0.790401  1
  C  C16  1  0.291500  0.429685  0.209599  1
  C  C17  1  0.290401  0.070315  0.208500  1
  C  C18  1  0.721185  0.570315  0.139285  1
  C  C19  1  0.639285  0.070315  0.221185  1
  S  S20  1  0.125000  0.750000  0.375000  1
  S  S21  1  0.875000  0.250000  0.625000  1
  O  O22  1  0.352304  0.789223  0.895354  1
  O  O23  1  0.063471  0.878181  0.435188  1
  O  O24  1  0.368914  0.946015  0.638617  1
  O  O25  1  0.138617  0.446015  0.868914  1
  O  O26  1  0.685070  0.946015  0.915368  1
  O  O27  1  0.299421  0.555209  0.849710  1
  O  O28  1  0.058348  0.878181  0.186630  1
  O  O29  1  0.064812  0.621819  0.436529  1
  O  O30  1  0.404920  0.944791  0.354632  1
  O  O31  1  0.584632  0.553985  0.814930  1
  O  O32  1  0.395354  0.289223  0.852304  1
  O  O33  1  0.313370  0.621819  0.441652  1
  O  O34  1  0.858474  0.789223  0.815425  1
  O  O35  1  0.684575  0.710777  0.641526  1
  O  O36  1  0.349710  0.055209  0.799421  1
  O  O37  1  0.145368  0.555209  0.095080  1
  O  O38  1  0.854632  0.444791  0.904920  1
  O  O39  1  0.650290  0.944791  0.200579  1
  O  O40  1  0.315425  0.289223  0.358474  1
  O  O41  1  0.141526  0.210777  0.184575  1
  O  O42  1  0.686630  0.378181  0.558348  1
  O  O43  1  0.604646  0.710777  0.147696  1
  O  O44  1  0.415367  0.446015  0.185070  1
  O  O45  1  0.595080  0.055209  0.645368  1
  O  O46  1  0.935188  0.378181  0.563471  1
  O  O47  1  0.941652  0.121819  0.813370  1
  O  O48  1  0.700579  0.444791  0.150290  1
  O  O49  1  0.314930  0.053985  0.084633  1
  O  O50  1  0.861383  0.553985  0.131086  1
  O  O51  1  0.631086  0.053985  0.361383  1
  O  O52  1  0.936529  0.121819  0.564812  1
  O  O53  1  0.647696  0.210777  0.104646  1
