# generated using pymatgen
data_MnPO4F
_symmetry_space_group_name_H-M   'P 1'
_cell_length_a   12.61190966
_cell_length_b   4.93062926
_cell_length_c   12.67850558
_cell_angle_alpha   90.00000000
_cell_angle_beta   119.76299005
_cell_angle_gamma   90.00000000
_symmetry_Int_Tables_number   1
_chemical_formula_structural   MnPO4F
_chemical_formula_sum   'Mn8 P8 O32 F8'
_cell_volume   684.40656002
_cell_formula_units_Z   8
loop_
 _symmetry_equiv_pos_site_id
 _symmetry_equiv_pos_as_xyz
  1  'x, y, z'
loop_
 _atom_site_type_symbol
 _atom_site_label
 _atom_site_symmetry_multiplicity
 _atom_site_fract_x
 _atom_site_fract_y
 _atom_site_fract_z
 _atom_site_occupancy
  Mn  Mn0  1  0.121227  0.277637  0.688689  1
  Mn  Mn1  1  0.378773  0.777637  0.811311  1
  Mn  Mn2  1  0.311268  0.224493  0.378771  1
  Mn  Mn3  1  0.188732  0.724493  0.121229  1
  Mn  Mn4  1  0.811268  0.275507  0.878771  1
  Mn  Mn5  1  0.688732  0.775507  0.621229  1
  Mn  Mn6  1  0.621227  0.222363  0.188689  1
  Mn  Mn7  1  0.878773  0.722363  0.311311  1
  P  P8  1  0.087819  0.221322  0.931832  1
  P  P9  1  0.069628  0.216501  0.413762  1
  P  P10  1  0.569628  0.283499  0.913763  1
  P  P11  1  0.412181  0.721322  0.568168  1
  P  P12  1  0.587819  0.278678  0.431832  1
  P  P13  1  0.430372  0.716501  0.086237  1
  P  P14  1  0.930372  0.783499  0.586237  1
  P  P15  1  0.912181  0.778678  0.068168  1
  O  O16  1  0.105129  0.918832  0.975043  1
  O  O17  1  0.046120  0.609424  0.658809  1
  O  O18  1  0.136937  0.261267  0.843758  1
  O  O19  1  0.025990  0.913748  0.391264  1
  O  O20  1  0.138224  0.287183  0.550039  1
  O  O21  1  0.361776  0.787183  0.949961  1
  O  O22  1  0.156822  0.271217  0.364632  1
  O  O23  1  0.047460  0.693815  0.134364  1
  O  O24  1  0.363063  0.761267  0.656242  1
  O  O25  1  0.453880  0.109424  0.841191  1
  O  O26  1  0.525990  0.586252  0.891264  1
  O  O27  1  0.333397  0.894044  0.453326  1
  O  O28  1  0.394871  0.418832  0.524957  1
  O  O29  1  0.166603  0.394044  0.046674  1
  O  O30  1  0.656822  0.228783  0.864632  1
  O  O31  1  0.547460  0.806185  0.634364  1
  O  O32  1  0.452540  0.193815  0.365636  1
  O  O33  1  0.343178  0.771217  0.135368  1
  O  O34  1  0.833397  0.605956  0.953326  1
  O  O35  1  0.605129  0.581168  0.475043  1
  O  O36  1  0.666603  0.105956  0.546674  1
  O  O37  1  0.474010  0.413748  0.108736  1
  O  O38  1  0.546120  0.890576  0.158809  1
  O  O39  1  0.636937  0.238733  0.343758  1
  O  O40  1  0.952540  0.306185  0.865636  1
  O  O41  1  0.843178  0.728783  0.635368  1
  O  O42  1  0.638224  0.212817  0.050039  1
  O  O43  1  0.861776  0.712817  0.449961  1
  O  O44  1  0.974010  0.086252  0.608736  1
  O  O45  1  0.863063  0.738733  0.156242  1
  O  O46  1  0.953880  0.390576  0.341191  1
  O  O47  1  0.894871  0.081168  0.024957  1
  F  F48  1  0.220767  0.963685  0.732675  1
  F  F49  1  0.279233  0.463685  0.767325  1
  F  F50  1  0.224556  0.036247  0.222257  1
  F  F51  1  0.275444  0.536247  0.277743  1
  F  F52  1  0.724556  0.463753  0.722257  1
  F  F53  1  0.775444  0.963753  0.777743  1
  F  F54  1  0.720767  0.536315  0.232675  1
  F  F55  1  0.779233  0.036315  0.267325  1
