# generated using pymatgen
data_VF4
_symmetry_space_group_name_H-M   'P 1'
_cell_length_a   7.51247300
_cell_length_b   5.03287071
_cell_length_c   7.44612548
_cell_angle_alpha   90.00000000
_cell_angle_beta   103.39628235
_cell_angle_gamma   90.00000000
_symmetry_Int_Tables_number   1
_chemical_formula_structural   VF4
_chemical_formula_sum   'V4 F16'
_cell_volume   273.87258061
_cell_formula_units_Z   4
loop_
 _symmetry_equiv_pos_site_id
 _symmetry_equiv_pos_as_xyz
  1  'x, y, z'
loop_
 _atom_site_type_symbol
 _atom_site_label
 _atom_site_symmetry_multiplicity
 _atom_site_fract_x
 _atom_site_fract_y
 _atom_site_fract_z
 _atom_site_occupancy
  V  V0  1  0.198383  0.253148  0.810084  1
  V  V1  1  0.198383  0.246852  0.310084  1
  V  V2  1  0.801617  0.753148  0.689916  1
  V  V3  1  0.801617  0.746852  0.189916  1
  F  F4  1  0.034575  0.948753  0.716594  1
  F  F5  1  0.034575  0.551247  0.216594  1
  F  F6  1  0.184930  0.356171  0.554951  1
  F  F7  1  0.304942  0.549772  0.898420  1
  F  F8  1  0.184930  0.143829  0.054951  1
  F  F9  1  0.304942  0.950228  0.398420  1
  F  F10  1  0.385298  0.051106  0.808061  1
  F  F11  1  0.385298  0.448894  0.308061  1
  F  F12  1  0.614702  0.551106  0.691939  1
  F  F13  1  0.614702  0.948894  0.191939  1
  F  F14  1  0.695058  0.049772  0.601580  1
  F  F15  1  0.815070  0.856171  0.945049  1
  F  F16  1  0.695058  0.450228  0.101580  1
  F  F17  1  0.815070  0.643829  0.445049  1
  F  F18  1  0.965425  0.448753  0.783406  1
  F  F19  1  0.965425  0.051247  0.283406  1
