# generated using pymatgen
data_Ni3O4
_symmetry_space_group_name_H-M   'P 1'
_cell_length_a   5.00508248
_cell_length_b   9.64847159
_cell_length_c   2.90123564
_cell_angle_alpha   98.68964417
_cell_angle_beta   89.97814537
_cell_angle_gamma   88.91337837
_symmetry_Int_Tables_number   1
_chemical_formula_structural   Ni3O4
_chemical_formula_sum   'Ni6 O8'
_cell_volume   138.47083383
_cell_formula_units_Z   2
loop_
 _symmetry_equiv_pos_site_id
 _symmetry_equiv_pos_as_xyz
  1  'x, y, z'
loop_
 _atom_site_type_symbol
 _atom_site_label
 _atom_site_symmetry_multiplicity
 _atom_site_fract_x
 _atom_site_fract_y
 _atom_site_fract_z
 _atom_site_occupancy
  Ni  Ni0  1  0.000000  0.000000  0.000000  1
  Ni  Ni1  1  0.135469  0.250713  0.625490  1
  Ni  Ni2  1  0.253188  0.515324  0.257694  1
  Ni  Ni3  1  0.500000  0.000000  0.500000  1
  Ni  Ni4  1  0.746812  0.484676  0.742306  1
  Ni  Ni5  1  0.864531  0.749287  0.374510  1
  O  O6  1  0.048679  0.615369  0.807845  1
  O  O7  1  0.150747  0.893530  0.446628  1
  O  O8  1  0.300131  0.116347  0.058718  1
  O  O9  1  0.395375  0.400746  0.700280  1
  O  O10  1  0.604625  0.599254  0.299720  1
  O  O11  1  0.699869  0.883653  0.941282  1
  O  O12  1  0.849253  0.106470  0.553372  1
  O  O13  1  0.951321  0.384631  0.192155  1
