# generated using pymatgen
data_Mn21O40
_symmetry_space_group_name_H-M   'P 1'
_cell_length_a   5.83400115
_cell_length_b   5.84039135
_cell_length_c   20.85772748
_cell_angle_alpha   97.78494162
_cell_angle_beta   82.24880243
_cell_angle_gamma   89.00328418
_symmetry_Int_Tables_number   1
_chemical_formula_structural   Mn21O40
_chemical_formula_sum   'Mn21 O40'
_cell_volume   697.23806228
_cell_formula_units_Z   1
loop_
 _symmetry_equiv_pos_site_id
 _symmetry_equiv_pos_as_xyz
  1  'x, y, z'
loop_
 _atom_site_type_symbol
 _atom_site_label
 _atom_site_symmetry_multiplicity
 _atom_site_fract_x
 _atom_site_fract_y
 _atom_site_fract_z
 _atom_site_occupancy
  Mn  Mn0  1  0.999817  0.500485  0.499649  1
  Mn  Mn1  1  0.198921  0.300167  0.101391  1
  Mn  Mn2  1  0.099689  0.900548  0.300143  1
  Mn  Mn3  1  0.102036  0.411556  0.797845  1
  Mn  Mn4  1  0.299794  0.200166  0.399703  1
  Mn  Mn5  1  0.105329  0.891828  0.799850  1
  Mn  Mn6  1  0.300602  0.700228  0.399856  1
  Mn  Mn7  1  0.492730  0.500686  0.002859  1
  Mn  Mn8  1  0.397008  0.096847  0.695748  1
  Mn  Mn9  1  0.292568  0.707456  0.900005  1
  Mn  Mn10  1  0.500641  0.499970  0.499593  1
  Mn  Mn11  1  0.700627  0.301230  0.100805  1
  Mn  Mn12  1  0.600059  0.899704  0.299974  1
  Mn  Mn13  1  0.497648  0.997041  0.004436  1
  Mn  Mn14  1  0.566733  0.168304  0.850048  1
  Mn  Mn15  1  0.701214  0.300870  0.598873  1
  Mn  Mn16  1  0.898584  0.100216  0.200320  1
  Mn  Mn17  1  0.700328  0.797659  0.598282  1
  Mn  Mn18  1  0.898880  0.600449  0.200452  1
  Mn  Mn19  1  0.899966  0.091998  0.697348  1
  Mn  Mn20  1  0.810785  0.701851  0.902267  1
  O  O21  1  0.121686  0.344932  0.195485  1
  O  O22  1  0.117120  0.850372  0.205681  1
  O  O23  1  0.077837  0.454978  0.405148  1
  O  O24  1  0.274615  0.252513  0.007475  1
  O  O25  1  0.083335  0.949275  0.394483  1
  O  O26  1  0.139832  0.314924  0.702279  1
  O  O27  1  0.345320  0.122479  0.305393  1
  O  O28  1  0.063628  0.481957  0.894952  1
  O  O29  1  0.255540  0.277539  0.494267  1
  O  O30  1  0.454921  0.078617  0.097118  1
  O  O31  1  0.150884  0.878982  0.703489  1
  O  O32  1  0.350001  0.683043  0.305505  1
  O  O33  1  0.079321  0.941085  0.892340  1
  O  O34  1  0.250478  0.716323  0.494316  1
  O  O35  1  0.448759  0.517535  0.096258  1
  O  O36  1  0.324006  0.145844  0.791179  1
  O  O37  1  0.341697  0.679828  0.808283  1
  O  O38  1  0.517049  0.449572  0.405182  1
  O  O39  1  0.713758  0.249477  0.006410  1
  O  O40  1  0.522706  0.944613  0.394457  1
  O  O41  1  0.478715  0.054640  0.603023  1
  O  O42  1  0.483271  0.549306  0.594086  1
  O  O43  1  0.279024  0.751504  0.996883  1
  O  O44  1  0.683511  0.350458  0.194918  1
  O  O45  1  0.677820  0.855428  0.205616  1
  O  O46  1  0.526061  0.470908  0.908134  1
  O  O47  1  0.750689  0.282948  0.504848  1
  O  O48  1  0.949331  0.083426  0.105965  1
  O  O49  1  0.649299  0.313120  0.693547  1
  O  O50  1  0.850311  0.116837  0.294731  1
  O  O51  1  0.745144  0.720958  0.504275  1
  O  O52  1  0.944884  0.522754  0.105871  1
  O  O53  1  0.545722  0.923932  0.908976  1
  O  O54  1  0.652107  0.874113  0.692507  1
  O  O55  1  0.855676  0.677807  0.294811  1
  O  O56  1  0.917040  0.048555  0.603847  1
  O  O57  1  0.714452  0.740265  0.998022  1
  O  O58  1  0.922799  0.544806  0.594205  1
  O  O59  1  0.869079  0.126568  0.791920  1
  O  O60  1  0.882670  0.663871  0.805056  1
