# generated using pymatgen
data_V6O13
_symmetry_space_group_name_H-M   'P 1'
_cell_length_a   3.82474400
_cell_length_b   10.52475111
_cell_length_c   12.42465609
_cell_angle_alpha   100.84836478
_cell_angle_beta   90.00047487
_cell_angle_gamma   89.99991137
_symmetry_Int_Tables_number   1
_chemical_formula_structural   V6O13
_chemical_formula_sum   'V12 O26'
_cell_volume   491.20977123
_cell_formula_units_Z   2
loop_
 _symmetry_equiv_pos_site_id
 _symmetry_equiv_pos_as_xyz
  1  'x, y, z'
loop_
 _atom_site_type_symbol
 _atom_site_label
 _atom_site_symmetry_multiplicity
 _atom_site_fract_x
 _atom_site_fract_y
 _atom_site_fract_z
 _atom_site_occupancy
  V  V0  1  0.996643  0.365143  0.713416  1
  V  V1  1  0.003468  0.634727  0.286258  1
  V  V2  1  0.503471  0.365269  0.213743  1
  V  V3  1  0.496645  0.634858  0.786586  1
  V  V4  1  0.003062  0.363854  0.412735  1
  V  V5  1  0.503056  0.636139  0.087268  1
  V  V6  1  0.997147  0.636055  0.586987  1
  V  V7  1  0.497158  0.363948  0.913010  1
  V  V8  1  0.008229  0.998360  0.352953  1
  V  V9  1  0.989927  0.000827  0.650232  1
  V  V10  1  0.508222  0.001652  0.147051  1
  V  V11  1  0.489951  0.999176  0.849766  1
  O  O12  1  0.494306  0.197866  0.886888  1
  O  O13  1  0.005973  0.197947  0.385632  1
  O  O14  1  0.994304  0.802132  0.613114  1
  O  O15  1  0.505971  0.802058  0.114366  1
  O  O16  1  0.992786  0.198377  0.676269  1
  O  O17  1  0.007570  0.801928  0.322350  1
  O  O18  1  0.507569  0.198068  0.177650  1
  O  O19  1  0.492794  0.801623  0.823731  1
  O  O20  1  0.999663  0.408954  0.560130  1
  O  O21  1  0.500391  0.408973  0.060508  1
  O  O22  1  0.499661  0.591040  0.939872  1
  O  O23  1  0.000390  0.591029  0.439490  1
  O  O24  1  0.996815  0.384588  0.880181  1
  O  O25  1  0.503296  0.385251  0.380143  1
  O  O26  1  0.496811  0.615413  0.619821  1
  O  O27  1  0.003295  0.614754  0.119852  1
  O  O28  1  0.996624  0.589634  0.746507  1
  O  O29  1  0.496620  0.410359  0.753493  1
  O  O30  1  0.503471  0.589396  0.246545  1
  O  O31  1  0.003466  0.410605  0.253452  1
  O  O32  1  0.001058  0.000353  0.495715  1
  O  O33  1  0.501060  0.999648  0.004282  1
  O  O34  1  0.507485  0.999528  0.316486  1
  O  O35  1  0.992082  0.000403  0.821664  1
  O  O36  1  0.492070  0.999596  0.678327  1
  O  O37  1  0.007491  0.000471  0.183528  1
