# generated using pymatgen
data_Ti4(CuO4)3
_symmetry_space_group_name_H-M   'P 1'
_cell_length_a   6.45598275
_cell_length_b   6.45598258
_cell_length_c   6.45598300
_cell_angle_alpha   109.47121881
_cell_angle_beta   109.47121827
_cell_angle_gamma   109.47121909
_symmetry_Int_Tables_number   1
_chemical_formula_structural   Ti4(CuO4)3
_chemical_formula_sum   'Ti4 Cu3 O12'
_cell_volume   207.14059982
_cell_formula_units_Z   1
loop_
 _symmetry_equiv_pos_site_id
 _symmetry_equiv_pos_as_xyz
  1  'x, y, z'
loop_
 _atom_site_type_symbol
 _atom_site_label
 _atom_site_symmetry_multiplicity
 _atom_site_fract_x
 _atom_site_fract_y
 _atom_site_fract_z
 _atom_site_occupancy
  Ti  Ti0  1  0.000000  0.000000  0.500000  1
  Ti  Ti1  1  0.000000  0.500000  0.000000  1
  Ti  Ti2  1  0.500000  0.500000  0.500000  1
  Ti  Ti3  1  0.500000  0.000000  0.000000  1
  Cu  Cu4  1  0.500000  0.500000  0.000000  1
  Cu  Cu5  1  0.000000  0.500000  0.500000  1
  Cu  Cu6  1  0.500000  0.000000  0.500000  1
  O  O7  1  0.822784  0.302907  0.125691  1
  O  O8  1  0.177216  0.697093  0.874309  1
  O  O9  1  0.822784  0.697093  0.519878  1
  O  O10  1  0.302907  0.480122  0.177216  1
  O  O11  1  0.480122  0.177216  0.302907  1
  O  O12  1  0.125691  0.822784  0.302907  1
  O  O13  1  0.697093  0.874309  0.177216  1
  O  O14  1  0.519878  0.822784  0.697093  1
  O  O15  1  0.177216  0.302907  0.480122  1
  O  O16  1  0.697093  0.519878  0.822784  1
  O  O17  1  0.874309  0.177216  0.697093  1
  O  O18  1  0.302907  0.125691  0.822784  1
