# generated using pymatgen
data_MnO2
_symmetry_space_group_name_H-M   'P 1'
_cell_length_a   8.61422169
_cell_length_b   9.05716884
_cell_length_c   10.33153451
_cell_angle_alpha   90.00000000
_cell_angle_beta   90.00000000
_cell_angle_gamma   108.51518169
_symmetry_Int_Tables_number   1
_chemical_formula_structural   MnO2
_chemical_formula_sum   'Mn24 O48'
_cell_volume   764.34847203
_cell_formula_units_Z   24
loop_
 _symmetry_equiv_pos_site_id
 _symmetry_equiv_pos_as_xyz
  1  'x, y, z'
loop_
 _atom_site_type_symbol
 _atom_site_label
 _atom_site_symmetry_multiplicity
 _atom_site_fract_x
 _atom_site_fract_y
 _atom_site_fract_z
 _atom_site_occupancy
  Mn  Mn0  1  0.065064  0.945446  0.885751  1
  Mn  Mn1  1  0.231438  0.445213  0.614614  1
  Mn  Mn2  1  0.934936  0.054553  0.114249  1
  Mn  Mn3  1  0.434936  0.554554  0.385751  1
  Mn  Mn4  1  0.388860  0.916334  0.399196  1
  Mn  Mn5  1  0.268562  0.054787  0.114614  1
  Mn  Mn6  1  0.111140  0.583666  0.899196  1
  Mn  Mn7  1  0.768562  0.554787  0.385386  1
  Mn  Mn8  1  0.898473  0.444651  0.614114  1
  Mn  Mn9  1  0.888860  0.416334  0.100804  1
  Mn  Mn10  1  0.731438  0.945213  0.885386  1
  Mn  Mn11  1  0.101527  0.555349  0.385886  1
  Mn  Mn12  1  0.398473  0.944651  0.885886  1
  Mn  Mn13  1  0.565064  0.445447  0.614249  1
  Mn  Mn14  1  0.601527  0.055349  0.114114  1
  Mn  Mn15  1  0.611140  0.083666  0.600804  1
  Mn  Mn16  1  0.444271  0.583136  0.899175  1
  Mn  Mn17  1  0.221917  0.416465  0.100726  1
  Mn  Mn18  1  0.721917  0.916465  0.399274  1
  Mn  Mn19  1  0.944271  0.083136  0.600825  1
  Mn  Mn20  1  0.055729  0.916864  0.399175  1
  Mn  Mn21  1  0.778083  0.583535  0.899274  1
  Mn  Mn22  1  0.278083  0.083535  0.600726  1
  Mn  Mn23  1  0.555729  0.416864  0.100825  1
  O  O24  1  0.455418  0.116699  0.481373  1
  O  O25  1  0.110704  0.582749  0.570929  1
  O  O26  1  0.815827  0.196182  0.148148  1
  O  O27  1  0.351392  0.304095  0.648084  1
  O  O28  1  0.544582  0.883301  0.518627  1
  O  O29  1  0.739500  0.468557  0.212626  1
  O  O30  1  0.184173  0.803818  0.851852  1
  O  O31  1  0.389296  0.917251  0.070929  1
  O  O32  1  0.955418  0.616699  0.018627  1
  O  O33  1  0.260500  0.531443  0.787374  1
  O  O34  1  0.721940  0.917130  0.069649  1
  O  O35  1  0.905912  0.968297  0.286708  1
  O  O36  1  0.710976  0.383281  0.981137  1
  O  O37  1  0.094088  0.031703  0.713292  1
  O  O38  1  0.289024  0.616719  0.018863  1
  O  O39  1  0.481952  0.196819  0.147925  1
  O  O40  1  0.044582  0.383301  0.981373  1
  O  O41  1  0.594088  0.531703  0.786708  1
  O  O42  1  0.148608  0.195905  0.148084  1
  O  O43  1  0.444471  0.583519  0.570235  1
  O  O44  1  0.926932  0.531171  0.786983  1
  O  O45  1  0.239500  0.968557  0.287374  1
  O  O46  1  0.789024  0.116719  0.481137  1
  O  O47  1  0.889296  0.417251  0.429071  1
  O  O48  1  0.944471  0.083519  0.929765  1
  O  O49  1  0.851392  0.804095  0.851916  1
  O  O50  1  0.122621  0.116996  0.481562  1
  O  O51  1  0.610704  0.082749  0.929071  1
  O  O52  1  0.518048  0.803181  0.852075  1
  O  O53  1  0.221940  0.417130  0.430351  1
  O  O54  1  0.622621  0.616996  0.018438  1
  O  O55  1  0.018048  0.303181  0.647925  1
  O  O56  1  0.760500  0.031443  0.712626  1
  O  O57  1  0.555529  0.416481  0.429765  1
  O  O58  1  0.315827  0.696182  0.351852  1
  O  O59  1  0.981952  0.696819  0.352075  1
  O  O60  1  0.778060  0.582870  0.569649  1
  O  O61  1  0.573068  0.968829  0.286983  1
  O  O62  1  0.377379  0.383004  0.981562  1
  O  O63  1  0.877379  0.883004  0.518438  1
  O  O64  1  0.210976  0.883281  0.518863  1
  O  O65  1  0.055529  0.916481  0.070235  1
  O  O66  1  0.648608  0.695905  0.351916  1
  O  O67  1  0.684173  0.303818  0.648148  1
  O  O68  1  0.278060  0.082870  0.930351  1
  O  O69  1  0.073068  0.468829  0.213017  1
  O  O70  1  0.405912  0.468297  0.213292  1
  O  O71  1  0.426932  0.031171  0.713017  1
