# generated using pymatgen
data_V2P2O9
_symmetry_space_group_name_H-M   'P 1'
_cell_length_a   6.31753168
_cell_length_b   7.65188137
_cell_length_c   13.78021429
_cell_angle_alpha   89.99501935
_cell_angle_beta   90.00030913
_cell_angle_gamma   90.00573414
_symmetry_Int_Tables_number   1
_chemical_formula_structural   V2P2O9
_chemical_formula_sum   'V8 P8 O36'
_cell_volume   666.14937373
_cell_formula_units_Z   4
loop_
 _symmetry_equiv_pos_site_id
 _symmetry_equiv_pos_as_xyz
  1  'x, y, z'
loop_
 _atom_site_type_symbol
 _atom_site_label
 _atom_site_symmetry_multiplicity
 _atom_site_fract_x
 _atom_site_fract_y
 _atom_site_fract_z
 _atom_site_occupancy
  V  V0  1  0.750001  0.345019  0.876835  1
  V  V1  1  0.249971  0.654885  0.123229  1
  V  V2  1  0.250001  0.845199  0.623148  1
  V  V3  1  0.750007  0.154879  0.376891  1
  V  V4  1  0.500088  0.000205  0.999969  1
  V  V5  1  0.500042  0.499924  0.500038  1
  V  V6  1  0.999959  0.499925  0.500038  1
  V  V7  1  0.999858  0.000231  0.999954  1
  P  P8  1  0.250031  0.354083  0.936947  1
  P  P9  1  0.749962  0.645902  0.062982  1
  P  P10  1  0.749980  0.854138  0.563043  1
  P  P11  1  0.250032  0.145810  0.436960  1
  P  P12  1  0.750016  0.393780  0.690817  1
  P  P13  1  0.750011  0.106230  0.190785  1
  P  P14  1  0.249997  0.893698  0.809207  1
  P  P15  1  0.249993  0.606220  0.309244  1
  O  O16  1  0.053408  0.595210  0.376804  1
  O  O17  1  0.553514  0.404730  0.623171  1
  O  O18  1  0.946467  0.095359  0.123146  1
  O  O19  1  0.446542  0.904666  0.876797  1
  O  O20  1  0.946495  0.404730  0.623190  1
  O  O21  1  0.446598  0.595210  0.376824  1
  O  O22  1  0.053479  0.904671  0.876832  1
  O  O23  1  0.553520  0.095365  0.123180  1
  O  O24  1  0.249994  0.335740  0.483935  1
  O  O25  1  0.750007  0.664260  0.516057  1
  O  O26  1  0.749980  0.835754  0.016046  1
  O  O27  1  0.250015  0.164172  0.983924  1
  O  O28  1  0.749940  0.143031  0.947749  1
  O  O29  1  0.250057  0.856671  0.052447  1
  O  O30  1  0.249965  0.643338  0.552392  1
  O  O31  1  0.750038  0.356805  0.447695  1
  O  O32  1  0.750018  0.222610  0.753187  1
  O  O33  1  0.249996  0.777418  0.246943  1
  O  O34  1  0.249982  0.722602  0.746808  1
  O  O35  1  0.750022  0.277378  0.253225  1
  O  O36  1  0.448333  0.134484  0.374043  1
  O  O37  1  0.948320  0.865475  0.625924  1
  O  O38  1  0.551637  0.634791  0.125863  1
  O  O39  1  0.051677  0.365336  0.874011  1
  O  O40  1  0.551681  0.865448  0.625906  1
  O  O41  1  0.051672  0.134457  0.374027  1
  O  O42  1  0.448331  0.365345  0.874017  1
  O  O43  1  0.948353  0.634805  0.125861  1
  O  O44  1  0.750014  0.509982  0.982162  1
  O  O45  1  0.249991  0.033828  0.729276  1
  O  O46  1  0.250004  0.466222  0.229230  1
  O  O47  1  0.750008  0.533996  0.770736  1
  O  O48  1  0.749998  0.989928  0.482128  1
  O  O49  1  0.250005  0.010084  0.517852  1
  O  O50  1  0.249994  0.489961  0.017828  1
  O  O51  1  0.750013  0.966008  0.270691  1
