# generated using pymatgen
data_CoO2
_symmetry_space_group_name_H-M   'P 1'
_cell_length_a   2.82660463
_cell_length_b   2.82787139
_cell_length_c   10.27379980
_cell_angle_alpha   89.84854477
_cell_angle_beta   90.06599668
_cell_angle_gamma   120.03150908
_symmetry_Int_Tables_number   1
_chemical_formula_structural   CoO2
_chemical_formula_sum   'Co2 O4'
_cell_volume   71.09629122
_cell_formula_units_Z   2
loop_
 _symmetry_equiv_pos_site_id
 _symmetry_equiv_pos_as_xyz
  1  'x, y, z'
loop_
 _atom_site_type_symbol
 _atom_site_label
 _atom_site_symmetry_multiplicity
 _atom_site_fract_x
 _atom_site_fract_y
 _atom_site_fract_z
 _atom_site_occupancy
  Co  Co0  1  0.997831  0.999740  0.501887  1
  Co  Co1  1  0.997766  0.999855  0.002173  1
  O  O2  1  0.664863  0.334563  0.410474  1
  O  O3  1  0.664973  0.332183  0.093932  1
  O  O4  1  0.330719  0.664895  0.593033  1
  O  O5  1  0.330524  0.667202  0.910958  1
