# generated using pymatgen
data_CrS2
_symmetry_space_group_name_H-M   'P 1'
_cell_length_a   7.10166672
_cell_length_b   7.10166617
_cell_length_c   7.10166700
_cell_angle_alpha   60.00000079
_cell_angle_beta   60.00000337
_cell_angle_gamma   59.99999698
_symmetry_Int_Tables_number   1
_chemical_formula_structural   CrS2
_chemical_formula_sum   'Cr4 S8'
_cell_volume   253.25956164
_cell_formula_units_Z   4
loop_
 _symmetry_equiv_pos_site_id
 _symmetry_equiv_pos_as_xyz
  1  'x, y, z'
loop_
 _atom_site_type_symbol
 _atom_site_label
 _atom_site_symmetry_multiplicity
 _atom_site_fract_x
 _atom_site_fract_y
 _atom_site_fract_z
 _atom_site_occupancy
  Cr  Cr0  1  0.500000  0.500000  0.500000  1
  Cr  Cr1  1  0.500000  0.000000  0.500000  1
  Cr  Cr2  1  0.000000  0.500000  0.500000  1
  Cr  Cr3  1  0.500000  0.500000  0.000000  1
  S  S4  1  0.739455  0.281634  0.739455  1
  S  S5  1  0.739455  0.739455  0.739455  1
  S  S6  1  0.260545  0.260545  0.718366  1
  S  S7  1  0.260545  0.718366  0.260545  1
  S  S8  1  0.260545  0.260545  0.260545  1
  S  S9  1  0.739455  0.739455  0.281634  1
  S  S10  1  0.281634  0.739455  0.739455  1
  S  S11  1  0.718366  0.260545  0.260545  1
